data_structure

_audit_creation_method RASPA-1.0
_audit_creation_date 2023-6-5
_audit_author_name 'Poobodin Mano'

_cell_length_a    43.5201
_cell_length_b    43.5081
_cell_length_c    24.1363
_cell_angle_alpha 89.6902
_cell_angle_beta  90.3098
_cell_angle_gamma 89.9995
_cell_volume      45700.2

_symmetry_cell_setting          triclinic
_symmetry_space_group_name_Hall 'P 1'
_symmetry_space_group_name_H-M  'P 1'
_symmetry_Int_Tables_number     1

_symmetry_equiv_pos_as_xyz 'x,y,z'

loop_
_atom_site_label
_atom_site_type_symbol
_atom_site_fract_x
_atom_site_fract_y
_atom_site_fract_z
_atom_site_charge
C1       C      0.323400000000     0.397760000000     0.975020000000     0.430874   
C2       C      0.309390000000     0.306900000000     0.898780000000     0.414441   
C3       C      0.396630000000     0.331020000000     0.994420000000     0.427085   
C4       C      0.311110000000     0.310930000000     0.078820000000     0.415848   
C5       C      0.314720000000     0.622650000000     0.971770000000     0.409579   
C6       C      0.305380000000     0.710540000000     0.080100000000     0.412812   
C7       C      0.387630000000     0.689260000000     0.001600000000     0.426608   
C8       C      0.296070000000     0.707930000000     0.899560000000     0.429316   
C9       C      0.622290000000     0.320090000000     0.992060000000     0.416626   
C10      C      0.715050000000     0.296640000000     0.903140000000     0.425975   
C11      C      0.686320000000     0.386510000000     0.977450000000     0.42505    
C12      C      0.710990000000     0.297100000000     0.075290000000     0.412383   
C13      C      0.678740000000     0.612260000000     0.973040000000     0.414165   
C14      C      0.695890000000     0.696560000000     0.874690000000     0.430237   
C15      C      0.611690000000     0.684700000000     0.977040000000     0.416421   
C16      C      0.700780000000     0.701140000000     0.058860000000     0.42862    
C17      C      0.832580000000     0.112130000000     0.489700000000     0.427335   
C18      C      0.811430000000     0.200690000000     0.578900000000     0.419792   
C19      C      0.899180000000     0.181380000000     0.484650000000     0.420316   
C20      C      0.807980000000     0.202200000000     0.403620000000     0.427053   
C21      C      0.886950000000     0.821080000000     0.477970000000     0.422401   
C22      C      0.794710000000     0.795030000000     0.553940000000     0.411022   
C23      C      0.820330000000     0.886600000000     0.476880000000     0.413323   
C24      C      0.798860000000     0.796880000000     0.383010000000     0.414331   
C25      C      0.113060000000     0.824830000000     0.486770000000     0.410601   
C26      C      0.204260000000     0.810030000000     0.394980000000     0.419958   
C27      C      0.183440000000     0.894170000000     0.472430000000     0.423143   
C28      C      0.197590000000     0.803560000000     0.574570000000     0.41665    
C29      C      0.125090000000     0.185630000000     0.481300000000     0.428852   
C30      C      0.211860000000     0.206750000000     0.578370000000     0.425344   
C31      C      0.190620000000     0.119850000000     0.476330000000     0.42577    
C32      C      0.219310000000     0.211330000000     0.405580000000     0.426461   
C33      C      0.184520000000     0.073380000000     0.422920000000     0.17605    
C34      C      0.198730000000     0.071280000000     0.518160000000     0.0845764  
C35      C      0.185820000000     0.041210000000     0.420310000000    -0.110892   
C36      C      0.168300000000     0.974520000000     0.436740000000    -0.0814201  
C37      C      0.199570000000     0.039250000000     0.516750000000    -0.0913965  
C38      C      0.191600000000     0.989620000000     0.466280000000     0.0360019  
C39      C      0.192860000000     0.023780000000     0.467560000000     0.0548332  
C40      C      0.166340000000     0.942510000000     0.438320000000     0.0803397  
C41      C      0.210200000000     0.939790000000     0.496850000000     0.0807411  
C42      C      0.212910000000     0.971790000000     0.496060000000    -0.0810005  
C43      C      0.933920000000     0.816490000000     0.531310000000     0.171844   
C44      C      0.935160000000     0.822980000000     0.433460000000     0.0815378  
C45      C      0.966100000000     0.814890000000     0.532640000000    -0.111299   
C46      C      0.033060000000     0.832810000000     0.529780000000    -0.0816647  
C47      C      0.967210000000     0.822250000000     0.434020000000    -0.0918416  
C48      C      0.017380000000     0.818780000000     0.485730000000     0.0340976  
C49      C      0.983150000000     0.818250000000     0.484000000000     0.0529932  
C50      C      0.065110000000     0.834040000000     0.529990000000     0.0765138  
C51      C      0.066770000000     0.807890000000     0.444140000000     0.0758149  
C52      C      0.034730000000     0.805960000000     0.442850000000    -0.081621   
C53      C      0.845400000000     0.062320000000     0.528170000000     0.172614   
C54      C      0.812560000000     0.066920000000     0.449440000000     0.0828919  
C55      C      0.841360000000     0.030320000000     0.527810000000    -0.111205   
C56      C      0.817600000000     0.964610000000     0.532660000000    -0.0812418  
C57      C      0.808720000000     0.035120000000     0.447680000000    -0.0918585  
C58      C      0.820660000000     0.982350000000     0.484360000000     0.0342062  
C59      C      0.823180000000     0.016390000000     0.487130000000     0.0534515  
C60      C      0.816920000000     0.932550000000     0.529360000000     0.0772216  
C61      C      0.821770000000     0.935150000000     0.431640000000     0.0767129  
C62      C      0.822410000000     0.967210000000     0.433390000000    -0.0819263  
C63      C      0.077470000000     0.193340000000     0.431010000000     0.175252   
C64      C      0.077530000000     0.180540000000     0.526950000000     0.086064   
C65      C      0.045230000000     0.194860000000     0.431480000000    -0.110448   
C66      C      0.978400000000     0.174790000000     0.436240000000    -0.0814635  
C67      C      0.045530000000     0.181480000000     0.528150000000    -0.0906116  
C68      C      0.994770000000     0.188060000000     0.480180000000     0.0360856  
C69      C      0.028940000000     0.188600000000     0.480070000000     0.0545874  
C70      C      0.946380000000     0.173090000000     0.438160000000     0.0803998  
C71      C      0.946180000000     0.197750000000     0.525520000000     0.0795959  
C72      C      0.978220000000     0.199820000000     0.524990000000    -0.0812566  
C73      C      0.725910000000     0.691150000000     0.791530000000     0.172622   
C74      C      0.702230000000     0.738720000000     0.813950000000     0.0852221  
C75      C      0.740020000000     0.705070000000     0.745630000000    -0.110551   
C76      C      0.780520000000     0.743070000000     0.670570000000    -0.0804062  
C77      C      0.715860000000     0.752970000000     0.768440000000    -0.0908136  
C78      C      0.750570000000     0.751310000000     0.685670000000     0.0349823  
C79      C      0.735300000000     0.736280000000     0.733830000000     0.0539271  
C80      C      0.794740000000     0.757660000000     0.625920000000     0.0786733  
C81      C      0.750650000000     0.788630000000     0.610600000000     0.0770452  
C82      C      0.735590000000     0.774280000000     0.654690000000    -0.0813702  
C83      C      0.723320000000     0.745700000000     0.102230000000     0.172178   
C84      C      0.719880000000     0.698030000000     0.150620000000     0.0824967  
C85      C      0.738420000000     0.758730000000     0.147890000000    -0.111607   
C86      C      0.748660000000     0.784500000000     0.263290000000    -0.082417   
C87      C      0.734700000000     0.710610000000     0.196660000000    -0.0925649  
C88      C      0.758450000000     0.755630000000     0.245120000000     0.033854   
C89      C      0.744030000000     0.741320000000     0.195720000000     0.0529817  
C90      C      0.762330000000     0.797830000000     0.309720000000     0.076664   
C91      C      0.795410000000     0.754860000000     0.320570000000     0.0753839  
C92      C      0.781980000000     0.740690000000     0.274520000000    -0.0819996  
C93      C      0.758680000000     0.292530000000     0.842130000000     0.172892   
C94      C      0.715880000000     0.258890000000     0.833250000000     0.0834093  
C95      C      0.771970000000     0.279390000000     0.794950000000    -0.110314   
C96      C      0.787210000000     0.259030000000     0.678230000000    -0.0810088  
C97      C      0.728840000000     0.245250000000     0.786750000000    -0.0913359  
C98      C      0.771340000000     0.241170000000     0.717240000000     0.035777   
C99      C      0.757110000000     0.255570000000     0.766720000000     0.0538435  
C100     C      0.800530000000     0.245110000000     0.632190000000     0.0802804  
C101     C      0.782740000000     0.196260000000     0.661980000000     0.0796746  
C102     C      0.769260000000     0.209400000000     0.708580000000    -0.0809129  
C103     C      0.761730000000     0.216370000000     0.353810000000     0.171909   
C104     C      0.811090000000     0.229620000000     0.319210000000     0.0827828  
C105     C      0.748040000000     0.228860000000     0.305890000000    -0.110855   
C106     C      0.726240000000     0.242770000000     0.188480000000    -0.0815653  
C107     C      0.797960000000     0.242520000000     0.271700000000    -0.0921196  
C108     C      0.751700000000     0.256390000000     0.214360000000     0.0344405  
C109     C      0.766090000000     0.242170000000     0.264370000000     0.0531607  
C110     C      0.712930000000     0.256650000000     0.141830000000     0.077147   
C111     C      0.749400000000     0.297080000000     0.145490000000     0.0774817  
C112     C      0.763230000000     0.283880000000     0.192200000000    -0.0812899  
C113     C      0.672540000000     0.433640000000     0.930220000000     0.173638   
C114     C      0.700340000000     0.434490000000     0.015380000000     0.0839466  
C115     C      0.673370000000     0.465840000000     0.928060000000    -0.110871   
C116     C      0.657760000000     0.531420000000     0.958470000000    -0.0819536  
C117     C      0.701170000000     0.466550000000     0.014290000000    -0.091469   
C118     C      0.685520000000     0.516670000000     0.971060000000     0.0354172  
C119     C      0.687290000000     0.482600000000     0.970620000000     0.0538982  
C120     C      0.655970000000     0.563390000000     0.959700000000     0.079037   
C121     C      0.708560000000     0.566770000000     0.985270000000     0.0792565  
C122     C      0.711100000000     0.534700000000     0.984890000000    -0.0808974  
C123     C      0.251150000000     0.731910000000     0.859190000000     0.172544   
C124     C      0.296200000000     0.723630000000     0.805790000000     0.0838474  
C125     C      0.236250000000     0.744110000000     0.812300000000    -0.11157    
C126     C      0.220440000000     0.788420000000     0.718120000000    -0.0819339  
C127     C      0.281890000000     0.735870000000     0.758800000000    -0.0923379  
C128     C      0.236590000000     0.760770000000     0.712850000000     0.0343954  
C129     C      0.251630000000     0.746350000000     0.761750000000     0.053538   
C130     C      0.207360000000     0.802340000000     0.671400000000     0.0773668  
C131     C      0.225180000000     0.761810000000     0.614600000000     0.0761021  
C132     C      0.238820000000     0.747410000000     0.660380000000    -0.0822522  
C133     C      0.245390000000     0.811120000000     0.328070000000     0.171921   
C134     C      0.208520000000     0.770740000000     0.328480000000     0.0834833  
C135     C      0.261370000000     0.796340000000     0.285420000000    -0.110827   
C136     C      0.277920000000     0.770790000000     0.172480000000    -0.0799572  
C137     C      0.223730000000     0.755960000000     0.285560000000    -0.0921911  
C138     C      0.266500000000     0.753430000000     0.216880000000     0.0354639  
C139     C      0.250580000000     0.768590000000     0.263670000000     0.0538444  
C140     C      0.291380000000     0.756050000000     0.127480000000     0.0817439  
C141     C      0.283160000000     0.707400000000     0.169630000000     0.078475   
C142     C      0.269570000000     0.721370000000     0.215320000000    -0.0813325  
C143     C      0.434370000000     0.719110000000     0.000950000000     0.1719     
C144     C      0.435620000000     0.664590000000     0.010070000000     0.0829109  
C145     C      0.466590000000     0.719620000000     0.997060000000    -0.11185    
C146     C      0.536100000000     0.706060000000     0.030380000000    -0.0819666  
C147     C      0.467510000000     0.664550000000     0.005920000000    -0.0937661  
C148     C      0.516810000000     0.692030000000     0.991530000000     0.0340443  
C149     C      0.483180000000     0.692170000000     0.998500000000     0.0529598  
C150     C      0.567970000000     0.703660000000     0.024720000000     0.0772859  
C151     C      0.561680000000     0.675400000000     0.941570000000     0.078349   
C152     C      0.529820000000     0.676750000000     0.946650000000    -0.0829944  
C153     C      0.207970000000     0.239470000000     0.658450000000     0.172803   
C154     C      0.254560000000     0.213370000000     0.638050000000     0.0828026  
C155     C      0.222440000000     0.254170000000     0.703130000000    -0.110942   
C156     C      0.252790000000     0.266050000000     0.814330000000    -0.0813267  
C157     C      0.269290000000     0.227430000000     0.682730000000    -0.0914846  
C158     C      0.268370000000     0.263130000000     0.764000000000     0.0351611  
C159     C      0.253280000000     0.248210000000     0.715750000000     0.0536149  
C160     C      0.266990000000     0.280560000000     0.859080000000     0.0780235  
C161     C      0.311800000000     0.289270000000     0.805790000000     0.0789905  
C162     C      0.298320000000     0.274760000000     0.760180000000    -0.0810429  
C163     C      0.258460000000     0.211910000000     0.335030000000     0.175486   
C164     C      0.225460000000     0.254830000000     0.347630000000     0.0851614  
C165     C      0.271060000000     0.226090000000     0.288010000000    -0.110344   
C166     C      0.305500000000     0.266690000000     0.207650000000    -0.0810019  
C167     C      0.238290000000     0.269740000000     0.301970000000    -0.0903262  
C168     C      0.274370000000     0.270380000000     0.220920000000     0.0354432  
C169     C      0.261050000000     0.255230000000     0.270860000000     0.0545008  
C170     C      0.317370000000     0.280350000000     0.159870000000     0.0780529  
C171     C      0.268760000000     0.302080000000     0.138490000000     0.0783242  
C172     C      0.256010000000     0.288420000000     0.185560000000    -0.081247   
C173     C      0.445900000000     0.350260000000     0.024780000000     0.173033   
C174     C      0.442100000000     0.303650000000     0.974100000000     0.0835715  
C175     C      0.478050000000     0.348100000000     0.023740000000    -0.110789   
C176     C      0.543970000000     0.328200000000     0.044160000000    -0.081544   
C177     C      0.474050000000     0.300860000000     0.973180000000    -0.091874   
C178     C      0.526510000000     0.321010000000     0.997020000000     0.0350404  
C179     C      0.492440000000     0.323330000000     0.997860000000     0.0536218  
C180     C      0.576010000000     0.327210000000     0.042040000000     0.0787809  
C181     C      0.574040000000     0.311640000000     0.948090000000     0.0794767  
C182     C      0.541940000000     0.312280000000     0.948800000000    -0.0809254  
C183     C      0.317070000000     0.443790000000     0.919340000000     0.17273    
C184     C      0.316070000000     0.445850000000     0.017750000000     0.0854924  
C185     C      0.312450000000     0.475710000000     0.916700000000    -0.110543   
C186     C      0.326400000000     0.543830000000     0.924780000000    -0.081487   
C187     C      0.312030000000     0.477610000000     0.016100000000    -0.0912429  
C188     C      0.308880000000     0.527190000000     0.963190000000     0.0346009  
C189     C      0.310470000000     0.493030000000     0.965240000000     0.0537073  
C190     C      0.327170000000     0.575880000000     0.926970000000     0.0775267  
C191     C      0.292820000000     0.575640000000     0.002870000000     0.0770305  
C192     C      0.291410000000     0.543570000000     0.001730000000    -0.0814182  
H1       H      0.147680000000     0.931750000000     0.415620000000     0.0361158  
H2       H      0.204050000000     0.082130000000     0.557410000000     0.0369564  
H3       H      0.231560000000     0.982460000000     0.518800000000     0.0601251  
H4       H      0.204750000000     0.026720000000     0.554560000000     0.0612218  
H5       H      0.151070000000     0.987320000000     0.413750000000     0.0614681  
H6       H      0.180560000000     0.029920000000     0.381480000000     0.0835314  
H7       H      0.226910000000     0.926800000000     0.520860000000     0.0383827  
H8       H      0.076310000000     0.845400000000     0.564510000000     0.0355132  
H9       H      0.923960000000     0.826110000000     0.393580000000     0.0343735  
H10      H      0.023700000000     0.794420000000     0.408440000000     0.0572836  
H11      H      0.979350000000     0.825440000000     0.395370000000     0.0598025  
H12      H      0.020730000000     0.843490000000     0.563420000000     0.0601866  
H13      H      0.977640000000     0.811560000000     0.572100000000     0.0808448  
H14      H      0.079350000000     0.797960000000     0.409970000000     0.0363845  
H15      H      0.814810000000     0.919600000000     0.567650000000     0.0379364  
H16      H      0.800540000000     0.080440000000     0.418270000000     0.0369857  
H17      H      0.825120000000     0.979980000000     0.395090000000     0.0579339  
H18      H      0.794250000000     0.025300000000     0.415700000000     0.0609792  
H19      H      0.815780000000     0.975400000000     0.572850000000     0.0614262  
H20      H      0.853750000000     0.016300000000     0.557710000000     0.0819915  
H21      H      0.823680000000     0.924310000000     0.391450000000     0.0356923  
H22      H      0.934600000000     0.162300000000     0.403660000000     0.0370758  
H23      H      0.089250000000     0.174980000000     0.565490000000     0.0408612  
H24      H      0.989920000000     0.210600000000     0.559500000000     0.0605176  
H25      H      0.033880000000     0.176020000000     0.566500000000     0.0636659  
H26      H      0.990240000000     0.165040000000     0.401120000000     0.0622527  
H27      H      0.032980000000     0.200220000000     0.393430000000     0.0823497  
H28      H      0.934200000000     0.206930000000     0.561070000000     0.0373544  
H29      H      0.817980000000     0.750740000000     0.615890000000     0.0419968  
H30      H      0.687950000000     0.752910000000     0.840190000000     0.0392255  
H31      H      0.712260000000     0.781060000000     0.664040000000     0.0576166  
H32      H      0.711710000000     0.777230000000     0.761440000000     0.0621727  
H33      H      0.793240000000     0.725830000000     0.693690000000     0.0628729  
H34      H      0.753760000000     0.691140000000     0.718160000000     0.0815341  
H35      H      0.738360000000     0.806370000000     0.587830000000     0.0349185  
H36      H      0.754020000000     0.820180000000     0.322510000000     0.0358828  
H37      H      0.713160000000     0.674060000000     0.153250000000     0.0334438  
H38      H      0.790290000000     0.718400000000     0.261570000000     0.0577186  
H39      H      0.738340000000     0.696460000000     0.233180000000     0.0599277  
H40      H      0.730250000000     0.796630000000     0.242140000000     0.0605099  
H41      H      0.745150000000     0.782710000000     0.146320000000     0.0816583  
H42      H      0.813720000000     0.742750000000     0.342110000000     0.0343971  
H43      H      0.812550000000     0.259720000000     0.602920000000     0.0374359  
H44      H      0.693610000000     0.250420000000     0.846350000000     0.0360418  
H45      H      0.757660000000     0.194600000000     0.738000000000     0.0590069  
H46      H      0.716340000000     0.227070000000     0.766030000000     0.0614768  
H47      H      0.789050000000     0.283710000000     0.682770000000     0.0624973  
H48      H      0.794510000000     0.287010000000     0.781840000000     0.082116   
H49      H      0.780690000000     0.171600000000     0.656890000000     0.0389637  
H50      H      0.693280000000     0.245410000000     0.122950000000     0.0354298  
H51      H      0.835960000000     0.230040000000     0.322310000000     0.0351876  
H52      H      0.782550000000     0.295500000000     0.211260000000     0.0586412  
H53      H      0.812880000000     0.252300000000     0.240450000000     0.060954   
H54      H      0.716800000000     0.221320000000     0.203750000000     0.060452   
H55      H      0.723210000000     0.229340000000     0.302410000000     0.0813331  
H56      H      0.758940000000     0.318430000000     0.129820000000     0.0389803  
H57      H      0.633980000000     0.573850000000     0.949820000000     0.0371313  
H58      H      0.711340000000     0.423070000000     0.050270000000     0.0366976  
H59      H      0.733010000000     0.524120000000     0.994720000000     0.0600937  
H60      H      0.711940000000     0.478690000000     0.048320000000     0.0608645  
H61      H      0.637300000000     0.518330000000     0.948490000000     0.0610287  
H62      H      0.662240000000     0.477750000000     0.893880000000     0.0832134  
H63      H      0.728820000000     0.580060000000     0.995790000000     0.0376927  
H64      H      0.195350000000     0.823930000000     0.676990000000     0.036488   
H65      H      0.319670000000     0.715670000000     0.801340000000     0.0356223  
H66      H      0.250900000000     0.725890000000     0.654750000000     0.0577163  
H67      H      0.294700000000     0.737580000000     0.720550000000     0.0614548  
H68      H      0.218470000000     0.799630000000     0.757910000000     0.0614904  
H69      H      0.212890000000     0.752480000000     0.815810000000     0.0817365  
H70      H      0.227440000000     0.750840000000     0.574580000000     0.0342008  
H71      H      0.299490000000     0.770270000000     0.093530000000     0.0439966  
H72      H      0.187980000000     0.759740000000     0.344360000000     0.0363433  
H73      H      0.261490000000     0.707110000000     0.249150000000     0.0577948  
H74      H      0.214200000000     0.734850000000     0.269210000000     0.0612871  
H75      H      0.275730000000     0.795580000000     0.171660000000     0.0636567  
H76      H      0.281900000000     0.806910000000     0.268720000000     0.0825684  
H77      H      0.284850000000     0.682530000000     0.169660000000     0.0366707  
H78      H      0.582370000000     0.714200000000     0.056120000000     0.0365256  
H79      H      0.424380000000     0.642460000000     0.014390000000     0.0337763  
H80      H      0.515410000000     0.665790000000     0.915790000000     0.0600824  
H81      H      0.479860000000     0.642930000000     0.007940000000     0.0617326  
H82      H      0.526610000000     0.718040000000     0.065620000000     0.0613782  
H83      H      0.478630000000     0.741310000000     0.993100000000     0.0836457  
H84      H      0.570960000000     0.663150000000     0.906410000000     0.0377015  
H85      H      0.254120000000     0.282390000000     0.897270000000     0.0369033  
H86      H      0.268090000000     0.197720000000     0.613240000000     0.0368938  
H87      H      0.311080000000     0.273180000000     0.721900000000     0.0595218  
H88      H      0.293070000000     0.221810000000     0.691580000000     0.0612527  
H89      H      0.229800000000     0.256950000000     0.819390000000     0.0613127  
H90      H      0.209330000000     0.269870000000     0.728480000000     0.0826575  
H91      H      0.334900000000     0.298240000000     0.801150000000     0.0384402  
H92      H      0.341520000000     0.276840000000     0.151030000000     0.0372216  
H93      H      0.207410000000     0.266830000000     0.369540000000     0.0394215  
H94      H      0.231760000000     0.291600000000     0.193480000000     0.059861   
H95      H      0.230300000000     0.292590000000     0.291250000000     0.0618876  
H96      H      0.320800000000     0.253540000000     0.234180000000     0.0608252  
H97      H      0.288860000000     0.214260000000     0.265290000000     0.0824596  
H98      H      0.253750000000     0.315720000000     0.112090000000     0.0369008  
H99      H      0.588690000000     0.333210000000     0.079250000000     0.0357394  
H100     H      0.428840000000     0.285860000000     0.953660000000     0.0350807  
H101     H      0.529340000000     0.306730000000     0.911350000000     0.0596062  
H102     H      0.484260000000     0.281070000000     0.953390000000     0.0606647  
H103     H      0.532970000000     0.334560000000     0.082580000000     0.0606243  
H104     H      0.491710000000     0.365690000000     0.043800000000     0.0821041  
H105     H      0.585170000000     0.305270000000     0.909730000000     0.0389189  
H106     H      0.341670000000     0.587840000000     0.897490000000     0.0355564  
H107     H      0.317310000000     0.435120000000     0.058370000000     0.0380006  
H108     H      0.277060000000     0.531700000000     0.031480000000     0.0578612  
H109     H      0.311060000000     0.490050000000     0.054800000000     0.0614589  
H110     H      0.340500000000     0.532210000000     0.894560000000     0.0608366  
H111     H      0.311230000000     0.486950000000     0.876580000000     0.0809265  
H112     H      0.279550000000     0.587450000000     0.034140000000     0.0372999  
In1      In     0.334760000000     0.336670000000     0.986010000000     2.4196     
In2      In     0.326070000000     0.682950000000     0.987480000000     2.43185    
In3      In     0.684200000000     0.324470000000     0.986430000000     2.42929    
In4      In     0.672840000000     0.674140000000     0.971030000000     2.42052    
In5      In     0.837470000000     0.174250000000     0.489350000000     2.42862    
In6      In     0.824820000000     0.824600000000     0.471880000000     2.4219     
In7      In     0.174730000000     0.832930000000     0.483850000000     2.41721    
In8      In     0.187220000000     0.181730000000     0.485640000000     2.44462    
N1       N      0.191180000000     0.088360000000     0.472000000000    -0.201656   
N2       N      0.186840000000     0.925380000000     0.468810000000    -0.19282    
N3       N      0.174600000000     0.089620000000     0.374140000000    -0.0305239  
N4       N      0.918490000000     0.820230000000     0.481430000000    -0.202702   
N5       N      0.081750000000     0.822040000000     0.487160000000    -0.192559   
N6       N      0.918110000000     0.815290000000     0.583260000000    -0.0299925  
N7       N      0.830510000000     0.080600000000     0.489340000000    -0.202536   
N8       N      0.819430000000     0.918010000000     0.479300000000    -0.192596   
N9       N      0.866930000000     0.074790000000     0.567310000000    -0.0301906  
N10      N      0.093540000000     0.186510000000     0.479140000000    -0.201842   
N11      N      0.930480000000     0.184210000000     0.482680000000    -0.192524   
N12      N      0.092590000000     0.197030000000     0.378690000000    -0.0316121  
N13      N      0.707770000000     0.708380000000     0.826500000000    -0.203127   
N14      N      0.780000000000     0.780410000000     0.596540000000    -0.191477   
N15      N      0.729250000000     0.658490000000     0.798340000000    -0.0306498  
N16      N      0.714440000000     0.715160000000     0.103540000000    -0.203209   
N17      N      0.785600000000     0.783190000000     0.337920000000    -0.193448   
N18      N      0.715660000000     0.765630000000     0.056610000000    -0.0306923  
N19      N      0.730190000000     0.282710000000     0.860210000000    -0.202717   
N20      N      0.798270000000     0.213990000000     0.624210000000    -0.192153   
N21      N      0.776450000000     0.314700000000     0.872360000000    -0.0304221  
N22      N      0.793380000000     0.216180000000     0.359600000000    -0.202955   
N23      N      0.724420000000     0.283590000000     0.120670000000    -0.192163   
N24      N      0.741840000000     0.206010000000     0.397360000000    -0.0303904  
N25      N      0.686230000000     0.418030000000     0.973940000000    -0.202115   
N26      N      0.681170000000     0.580900000000     0.972800000000    -0.191365   
N27      N      0.655060000000     0.418040000000     0.888340000000    -0.0304763  
N28      N      0.281040000000     0.721270000000     0.855430000000    -0.203514   
N29      N      0.209880000000     0.789190000000     0.620100000000    -0.194185   
N30      N      0.235210000000     0.733080000000     0.911060000000    -0.0312155  
N31      N      0.219330000000     0.797780000000     0.350380000000    -0.201349   
N32      N      0.293580000000     0.724620000000     0.125830000000    -0.190627   
N33      N      0.255960000000     0.840910000000     0.344940000000    -0.0305925  
N34      N      0.419030000000     0.691350000000     0.005290000000    -0.203793   
N35      N      0.580550000000     0.688210000000     0.980910000000    -0.192594   
N36      N      0.418400000000     0.747990000000     0.003700000000    -0.0307889  
N37      N      0.224400000000     0.219660000000     0.625140000000    -0.202594   
N38      N      0.296170000000     0.292230000000     0.854680000000    -0.192011   
N39      N      0.175530000000     0.244200000000     0.651170000000    -0.0308466  
N40      N      0.234810000000     0.225910000000     0.363480000000    -0.201618   
N41      N      0.299120000000     0.297850000000     0.125630000000    -0.192658   
N42      N      0.271760000000     0.183380000000     0.353290000000    -0.0299398  
N43      N      0.428020000000     0.328360000000     0.998520000000    -0.202321   
N44      N      0.590880000000     0.319400000000     0.994170000000    -0.192081   
N45      N      0.432570000000     0.374660000000     0.056500000000    -0.0302909  
N46      N      0.318870000000     0.428930000000     0.970110000000    -0.202868   
N47      N      0.311180000000     0.591540000000     0.966680000000    -0.191482   
N48      N      0.321300000000     0.427820000000     0.868130000000    -0.0310861  
O1       O      0.295800000000     0.328580000000     0.047470000000    -0.4887     
O2       O      0.338340000000     0.306210000000     0.063250000000    -0.498635   
O3       O      0.335960000000     0.318570000000     0.897030000000    -0.484885   
O4       O      0.325270000000     0.379910000000     0.934220000000    -0.482728   
O5       O      0.379660000000     0.309850000000     0.975600000000    -0.489664   
O6       O      0.326520000000     0.384470000000     0.021340000000    -0.49375    
O7       O      0.295850000000     0.310190000000     0.944470000000    -0.500454   
O8       O      0.382240000000     0.355040000000     0.007610000000    -0.481561   
O9       O      0.282770000000     0.700020000000     0.943650000000    -0.48947    
O10      O      0.324520000000     0.702180000000     0.899200000000    -0.497813   
O11      O      0.307050000000     0.681670000000     0.075530000000    -0.48691    
O12      O      0.302250000000     0.637900000000     0.010030000000    -0.48458    
O13      O      0.370880000000     0.710470000000     0.982350000000    -0.47523    
O14      O      0.332230000000     0.638110000000     0.940660000000    -0.500047   
O15      O      0.314580000000     0.725360000000     0.038270000000    -0.488812   
O16      O      0.373230000000     0.664950000000     0.013360000000    -0.508582   
O17      O      0.687650000000     0.286050000000     0.051290000000    -0.499679   
O18      O      0.720800000000     0.321830000000     0.054240000000    -0.489624   
O19      O      0.690450000000     0.286100000000     0.923230000000    -0.498423   
O20      O      0.637120000000     0.314180000000     0.948540000000    -0.487702   
O21      O      0.694680000000     0.372200000000     0.020650000000    -0.490502   
O22      O      0.638800000000     0.327640000000     0.033000000000    -0.501      
O23      O      0.723710000000     0.321550000000     0.924650000000    -0.481215   
O24      O      0.678000000000     0.369280000000     0.938230000000    -0.47938    
O25      O      0.699190000000     0.713350000000     0.011430000000    -0.485332   
O26      O      0.688920000000     0.674650000000     0.061600000000    -0.497931   
O27      O      0.704510000000     0.671410000000     0.895810000000    -0.482279   
O28      O      0.701180000000     0.629940000000     0.982880000000    -0.481322   
O29      O      0.630110000000     0.692690000000     0.014950000000    -0.49453    
O30      O      0.653750000000     0.625880000000     0.962830000000    -0.497895   
O31      O      0.676160000000     0.710650000000     0.903030000000    -0.495214   
O32      O      0.624260000000     0.671970000000     0.936130000000    -0.488354   
O33      O      0.794420000000     0.185150000000     0.438170000000    -0.478689   
O34      O      0.836560000000     0.204570000000     0.411980000000    -0.502273   
O35      O      0.809490000000     0.172280000000     0.569080000000    -0.493353   
O36      O      0.845530000000     0.126990000000     0.527980000000    -0.47963    
O37      O      0.883400000000     0.190730000000     0.524970000000    -0.494277   
O38      O      0.821290000000     0.128860000000     0.451760000000    -0.496303   
O39      O      0.826560000000     0.215790000000     0.543490000000    -0.495637   
O40      O      0.883760000000     0.168700000000     0.446670000000    -0.497273   
O41      O      0.821160000000     0.785200000000     0.409420000000    -0.499769   
O42      O      0.789820000000     0.822380000000     0.401530000000    -0.501767   
O43      O      0.821330000000     0.787560000000     0.538420000000    -0.48795    
O44      O      0.869690000000     0.818310000000     0.519410000000    -0.47501    
O45      O      0.823820000000     0.872250000000     0.432060000000    -0.497234   
O46      O      0.872650000000     0.824840000000     0.432710000000    -0.499032   
O47      O      0.783040000000     0.817390000000     0.527560000000    -0.495466   
O48      O      0.818650000000     0.869610000000     0.519360000000    -0.49235    
O49      O      0.198660000000     0.792280000000     0.526640000000    -0.505499   
O50      O      0.184750000000     0.829490000000     0.576820000000    -0.495138   
O51      O      0.179310000000     0.799040000000     0.413010000000    -0.486086   
O52      O      0.129330000000     0.816130000000     0.446680000000    -0.485291   
O53      O      0.200830000000     0.877390000000     0.501750000000    -0.490454   
O54      O      0.127980000000     0.837180000000     0.525720000000    -0.500426   
O55      O      0.214490000000     0.832380000000     0.422720000000    -0.478651   
O56      O      0.162040000000     0.879910000000     0.448120000000    -0.504587   
O57      O      0.197730000000     0.223920000000     0.431980000000    -0.493664   
O58      O      0.224280000000     0.183820000000     0.419600000000    -0.476773   
O59      O      0.186400000000     0.215030000000     0.558040000000    -0.484196   
O60      O      0.139670000000     0.176260000000     0.523490000000    -0.496939   
O61      O      0.185490000000     0.137550000000     0.435800000000    -0.472525   
O62      O      0.142100000000     0.194070000000     0.441850000000    -0.472446   
O63      O      0.225310000000     0.186130000000     0.550920000000    -0.496299   
O64      O      0.195010000000     0.133640000000     0.521680000000    -0.493829   
O65      O      0.147820000000     0.102930000000     0.373590000000    -0.0769435  
O66      O      0.188650000000     0.085080000000     0.327450000000    -0.0823573  
O67      O      0.905050000000     0.840020000000     0.602020000000    -0.0855547  
O68      O      0.922870000000     0.792290000000     0.616880000000    -0.0925463  
O69      O      0.891790000000     0.088100000000     0.549490000000    -0.0885781  
O70      O      0.865230000000     0.066890000000     0.619270000000    -0.0937673  
O71      O      0.085850000000     0.220440000000     0.347160000000    -0.0903477  
O72      O      0.107390000000     0.173930000000     0.357560000000    -0.0735973  
O73      O      0.756070000000     0.645770000000     0.792170000000    -0.0935163  
O74      O      0.704930000000     0.641090000000     0.799400000000    -0.0889509  
O75      O      0.736600000000     0.783500000000     0.035590000000    -0.0944462  
O76      O      0.686930000000     0.770760000000     0.044490000000    -0.0861645  
O77      O      0.790320000000     0.336790000000     0.845900000000    -0.0916327  
O78      O      0.783990000000     0.309140000000     0.923680000000    -0.0876876  
O79      O      0.718360000000     0.188660000000     0.385620000000    -0.0950114  
O80      O      0.743280000000     0.219030000000     0.445710000000    -0.0888647  
O81      O      0.659660000000     0.424500000000     0.836350000000    -0.0902041  
O82      O      0.630360000000     0.403050000000     0.902200000000    -0.0890431  
O83      O      0.206900000000     0.723610000000     0.913940000000    -0.0953735  
O84      O      0.246390000000     0.749450000000     0.951390000000    -0.0848701  
O85      O      0.238090000000     0.864660000000     0.338480000000    -0.0853705  
O86      O      0.285010000000     0.845300000000     0.355110000000    -0.0931799  
O87      O      0.426950000000     0.770870000000     0.972470000000    -0.0925835  
O88      O      0.399480000000     0.753140000000     0.044170000000    -0.0861912  
O89      O      0.164290000000     0.271890000000     0.653030000000    -0.0928827  
O90      O      0.156890000000     0.220880000000     0.654480000000    -0.0837865  
O91      O      0.284890000000     0.181770000000     0.401790000000    -0.0844413  
O92      O      0.276550000000     0.161520000000     0.317800000000    -0.0856741  
O93      O      0.442800000000     0.402590000000     0.050830000000    -0.0937702  
O94      O      0.415180000000     0.368040000000     0.098600000000    -0.0863684  
O95      O      0.348370000000     0.417270000000     0.855810000000    -0.083468   
O96      O      0.300630000000     0.430250000000     0.829200000000    -0.0944729  


