data_structure

_audit_creation_method RASPA-1.0
_audit_creation_date 2023-5-22
_audit_author_name 'Poobodin Mano'

_cell_length_a    30.4761
_cell_length_b    30.6734
_cell_length_c    25.8995
_cell_angle_alpha 90.0005
_cell_angle_beta  89.9999
_cell_angle_gamma 120
_cell_volume      20967.3

_symmetry_cell_setting          triclinic
_symmetry_space_group_name_Hall 'P 1'
_symmetry_space_group_name_H-M  'P 1'
_symmetry_Int_Tables_number     1

_symmetry_equiv_pos_as_xyz 'x,y,z'

loop_
_atom_site_label
_atom_site_type_symbol
_atom_site_fract_x
_atom_site_fract_y
_atom_site_fract_z
_atom_site_charge
C1       C      0.998530000000     0.638920000000     0.099030000000     0.350968   
C2       C      0.073640000000     0.742440000000     0.947010000000     0.343566   
C3       C      0.983910000000     0.580320000000     0.952150000000     0.347438   
C4       C      0.929080000000     0.692400000000     0.016520000000     0.343109   
C5       C      0.948820000000     0.293120000000     0.088480000000     0.350038   
C6       C      0.889060000000     0.225920000000     0.925020000000     0.352047   
C7       C      0.959250000000     0.383690000000     0.949370000000     0.34475    
C8       C      0.049380000000     0.306330000000     0.991310000000     0.348421   
C9       C      0.996640000000     0.311580000000     0.305330000000     0.34404    
C10      C      0.070260000000     0.293430000000     0.465020000000     0.348188   
C11      C      0.988840000000     0.371050000000     0.444700000000     0.347328   
C12      C      0.920460000000     0.197680000000     0.396830000000     0.343268   
C13      C      0.973780000000     0.617280000000     0.319110000000     0.348093   
C14      C      0.900830000000     0.637490000000     0.480770000000     0.347531   
C15      C      0.970180000000     0.547300000000     0.453770000000     0.345359   
C16      C      0.047170000000     0.725860000000     0.414770000000     0.347427   
C17      C      0.297620000000     0.319120000000     0.759530000000     0.350873   
C18      C      0.231040000000     0.306910000000     0.594830000000     0.352576   
C19      C      0.390470000000     0.394250000000     0.621630000000     0.344863   
C20      C      0.310780000000     0.228240000000     0.664580000000     0.352761   
C21      C      0.648230000000     0.625950000000     0.762960000000     0.348759   
C22      C      0.749180000000     0.647770000000     0.606630000000     0.34688    
C23      C      0.587770000000     0.568950000000     0.624880000000     0.3498     
C24      C      0.701740000000     0.744260000000     0.672910000000     0.34636    
C25      C      0.319000000000     0.302370000000     0.978510000000     0.346131   
C26      C      0.302610000000     0.222110000000     0.142800000000     0.350206   
C27      C      0.392370000000     0.377690000000     0.117550000000     0.343042   
C28      C      0.219160000000     0.294310000000     0.072790000000     0.344812   
C29      C      0.630190000000     0.636170000000     0.982980000000     0.345807   
C30      C      0.646360000000     0.732130000000     0.141120000000     0.346431   
C31      C      0.569780000000     0.572450000000     0.119180000000     0.349162   
C32      C      0.746950000000     0.690250000000     0.076150000000     0.347204   
C33      C      0.303610000000     0.955870000000     0.649470000000     0.35189    
C34      C      0.228110000000     0.892780000000     0.816100000000     0.348468   
C35      C      0.384460000000     0.961880000000     0.788610000000     0.340388   
C36      C      0.298090000000     0.046350000000     0.743220000000     0.338489   
C37      C      0.636580000000     0.984400000000     0.644340000000     0.346877   
C38      C      0.740190000000     0.063480000000     0.799030000000     0.345984   
C39      C      0.580180000000     0.980880000000     0.783910000000     0.348089   
C40      C      0.696220000000     0.921780000000     0.731350000000     0.346361   
C41      C      0.313860000000     0.005950000000     0.433750000000     0.349936   
C42      C      0.300070000000     0.066590000000     0.271430000000     0.352694   
C43      C      0.386080000000     0.993240000000     0.291690000000     0.340847   
C44      C      0.221630000000     0.905500000000     0.338350000000     0.351137   
C45      C      0.614490000000     0.958810000000     0.424550000000     0.349002   
C46      C      0.638060000000     0.884090000000     0.266370000000     0.346233   
C47      C      0.558640000000     0.966770000000     0.287110000000     0.348001   
C48      C      0.733770000000     0.023800000000     0.336610000000     0.34805    
C49      C      0.424290000000     0.939770000000     0.271470000000    -0.00697732 
C50      C      0.430390000000     0.987820000000     0.279210000000    -0.0702625  
C51      C      0.479550000000     0.029660000000     0.281710000000    -0.00484952 
C52      C      0.521810000000     0.023190000000     0.279940000000    -0.00269252 
C53      C      0.515500000000     0.974670000000     0.276690000000    -0.0755284  
C54      C      0.466490000000     0.933190000000     0.270750000000    -0.00358516 
C55      C      0.598330000000     0.929450000000     0.567220000000    -0.00480728 
C56      C      0.624840000000     0.978080000000     0.588680000000    -0.0722926  
C57      C      0.643350000000     0.019990000000     0.555980000000    -0.00494961 
C58      C      0.637190000000     0.013420000000     0.502590000000    -0.00335451 
C59      C      0.613230000000     0.964820000000     0.480930000000    -0.0725469  
C60      C      0.592980000000     0.922880000000     0.513750000000    -0.00545222 
C61      C      0.262310000000     0.958890000000     0.567380000000    -0.00617411 
C62      C      0.305650000000     0.965720000000     0.593530000000    -0.0742784  
C63      C      0.352230000000     0.987770000000     0.567250000000    -0.00744835 
C64      C      0.355340000000     0.002400000000     0.515660000000    -0.0014876  
C65      C      0.312070000000     0.995930000000     0.489640000000    -0.078454   
C66      C      0.265540000000     0.974120000000     0.516020000000    -0.0045868  
C67      C      0.477250000000     0.012790000000     0.806110000000    -0.00579166 
C68      C      0.433680000000     0.965500000000     0.799480000000    -0.070641   
C69      C      0.438720000000     0.922490000000     0.795950000000    -0.00605888 
C70      C      0.486710000000     0.927070000000     0.795340000000    -0.00388183 
C71      C      0.530380000000     0.974840000000     0.797210000000    -0.0753997  
C72      C      0.525260000000     0.017470000000     0.804480000000    -0.00236163 
C73      C      0.642610000000     0.767310000000     0.227240000000    -0.00578542 
C74      C      0.644440000000     0.771150000000     0.173090000000    -0.0740941  
C75      C      0.644040000000     0.812340000000     0.149900000000    -0.00601021 
C76      C      0.642280000000     0.849180000000     0.180250000000    -0.00562418 
C77      C      0.640050000000     0.845130000000     0.234380000000    -0.0746149  
C78      C      0.640030000000     0.803720000000     0.257560000000    -0.00595958 
C79      C      0.486630000000     0.431300000000     0.123650000000    -0.00625201 
C80      C      0.438390000000     0.426220000000     0.128720000000    -0.0691788  
C81      C      0.434540000000     0.469300000000     0.138080000000    -0.00659132 
C82      C      0.477870000000     0.516980000000     0.138030000000    -0.00321651 
C83      C      0.525840000000     0.522310000000     0.129770000000    -0.0746048  
C84      C      0.530100000000     0.478980000000     0.124720000000    -0.00368297 
C85      C      0.301950000000     0.103410000000     0.184680000000    -0.00459974 
C86      C      0.299040000000     0.105630000000     0.238670000000    -0.0767795  
C87      C      0.296290000000     0.145990000000     0.260940000000    -0.00473533 
C88      C      0.296460000000     0.183400000000     0.229770000000    -0.00576499 
C89      C      0.300390000000     0.181670000000     0.175830000000    -0.0756037  
C90      C      0.303090000000     0.141280000000     0.153620000000    -0.0052398  
C91      C      0.708620000000     0.805520000000     0.739780000000    -0.0032284  
C92      C      0.707480000000     0.793280000000     0.687250000000    -0.0720386  
C93      C      0.706640000000     0.825650000000     0.649630000000    -0.00509998 
C94      C      0.706130000000     0.869250000000     0.664350000000    -0.0032627  
C95      C      0.704540000000     0.880060000000     0.716880000000    -0.0722494  
C96      C      0.706220000000     0.848130000000     0.754510000000    -0.00520645 
C97      C      0.658750000000     0.601560000000     0.852300000000    -0.0055666  
C98      C      0.638320000000     0.622810000000     0.818970000000    -0.071806   
C99      C      0.611430000000     0.644920000000     0.839930000000    -0.00455514 
C100     C      0.607250000000     0.647960000000     0.893370000000    -0.00633237 
C101     C      0.629060000000     0.628110000000     0.926740000000    -0.0709834  
C102     C      0.653760000000     0.603770000000     0.905720000000    -0.0052709  
C103     C      0.260440000000     0.091220000000     0.696920000000    -0.00800506 
C104     C      0.300730000000     0.093330000000     0.725410000000    -0.0690712  
C105     C      0.345200000000     0.139950000000     0.731880000000    -0.00863677 
C106     C      0.349220000000     0.183620000000     0.710380000000    -0.00371806 
C107     C      0.308840000000     0.181470000000     0.682010000000    -0.0757396  
C108     C      0.264440000000     0.134830000000     0.675470000000    -0.00360742 
C109     C      0.336540000000     0.357770000000     0.844550000000    -0.00472315 
C110     C      0.300930000000     0.316010000000     0.816090000000    -0.0758659  
C111     C      0.272360000000     0.269490000000     0.841210000000    -0.00472998 
C112     C      0.279600000000     0.264680000000     0.893660000000    -0.00635979 
C113     C      0.315110000000     0.306420000000     0.922170000000    -0.0737131  
C114     C      0.343290000000     0.353100000000     0.897230000000    -0.00585221 
C115     C      0.483650000000     0.434390000000     0.606750000000    -0.00655887 
C116     C      0.440300000000     0.439130000000     0.611420000000    -0.0708505  
C117     C      0.445970000000     0.487470000000     0.612990000000    -0.00528415 
C118     C      0.494260000000     0.530240000000     0.613250000000    -0.00414173 
C119     C      0.537630000000     0.525260000000     0.612940000000    -0.0745951  
C120     C      0.531920000000     0.477080000000     0.608000000000    -0.00390252 
C121     C      0.140680000000     0.780680000000     0.404880000000    -0.00608451 
C122     C      0.091810000000     0.773610000000     0.398590000000    -0.0712844  
C123     C      0.085710000000     0.809820000000     0.371190000000    -0.00632701 
C124     C      0.127750000000     0.852260000000     0.350430000000    -0.00444486 
C125     C      0.176540000000     0.858900000000     0.356150000000    -0.074311   
C126     C      0.182560000000     0.822730000000     0.383660000000    -0.00475181 
C127     C      0.823130000000     0.645070000000     0.490170000000    -0.00572772 
C128     C      0.862680000000     0.641010000000     0.513200000000    -0.0748919  
C129     C      0.865150000000     0.640020000000     0.567370000000    -0.00593504 
C130     C      0.828380000000     0.642310000000     0.597850000000    -0.00614805 
C131     C      0.788820000000     0.646350000000     0.574760000000    -0.0746124  
C132     C      0.786800000000     0.648030000000     0.520610000000    -0.00598718 
C133     C      0.840430000000     0.118830000000     0.419520000000    -0.00515264 
C134     C      0.875120000000     0.150200000000     0.382220000000    -0.0727698  
C135     C      0.864450000000     0.138140000000     0.329580000000    -0.00378233 
C136     C      0.818670000000     0.096480000000     0.314380000000    -0.00466608 
C137     C      0.783860000000     0.065280000000     0.351660000000    -0.0723178  
C138     C      0.795490000000     0.076090000000     0.404350000000    -0.00245728 
C139     C      0.026160000000     0.462470000000     0.464920000000    -0.003784   
C140     C      0.983160000000     0.414870000000     0.457470000000    -0.0733944  
C141     C      0.935110000000     0.410660000000     0.456170000000    -0.0045879  
C142     C      0.930540000000     0.453760000000     0.458060000000    -0.00483763 
C143     C      0.973840000000     0.501650000000     0.462330000000    -0.0748567  
C144     C      0.021490000000     0.505480000000     0.467850000000    -0.00374264 
C145     C      0.195290000000     0.306180000000     0.507440000000    -0.00440407 
C146     C      0.189810000000     0.302900000000     0.561420000000    -0.0763905  
C147     C      0.144490000000     0.295740000000     0.583290000000    -0.00454522 
C148     C      0.105340000000     0.291730000000     0.551840000000    -0.00579643 
C149     C      0.111070000000     0.295770000000     0.497920000000    -0.0749649  
C150     C      0.156470000000     0.303150000000     0.476010000000    -0.00583132 
C151     C      0.982980000000     0.272000000000     0.165800000000    -0.00346624 
C152     C      0.958540000000     0.296390000000     0.144500000000    -0.0762925  
C153     C      0.948670000000     0.327710000000     0.176060000000    -0.00357816 
C154     C      0.962180000000     0.333740000000     0.228310000000    -0.00703442 
C155     C      0.987010000000     0.309640000000     0.249390000000    -0.0696791  
C156     C      0.997510000000     0.278960000000     0.217590000000    -0.00918904 
C157     C      0.133690000000     0.345720000000     0.035350000000    -0.0057168  
C158     C      0.094470000000     0.304510000000     0.009130000000    -0.0730725  
C159     C      0.095840000000     0.259520000000     0.005610000000    -0.00389413 
C160     C      0.135490000000     0.255730000000     0.027970000000    -0.00673423 
C161     C      0.174660000000     0.296860000000     0.054300000000    -0.0736587  
C162     C      0.173430000000     0.341940000000     0.057680000000    -0.00653656 
C163     C      0.855440000000     0.186750000000     0.838440000000    -0.004267   
C164     C      0.851350000000     0.184340000000     0.892560000000    -0.0765572  
C165     C      0.810930000000     0.141680000000     0.915530000000    -0.0045014  
C166     C      0.775390000000     0.102130000000     0.885060000000    -0.00636448 
C167     C      0.779050000000     0.104750000000     0.830930000000    -0.073399   
C168     C      0.819370000000     0.147490000000     0.807880000000    -0.00664608 
C169     C      0.873310000000     0.695800000000     0.084610000000    -0.00580741 
C170     C      0.886270000000     0.698870000000     0.032070000000    -0.0676717  
C171     C      0.855420000000     0.703450000000     0.994930000000    -0.00936589 
C172     C      0.811670000000     0.703950000000     0.010020000000     0.000774274
C173     C      0.797220000000     0.698080000000     0.062290000000    -0.0737292  
C174     C      0.828590000000     0.694500000000     0.099550000000    -0.00352795 
C175     C      0.944250000000     0.599690000000     0.176410000000    -0.00349914 
C176     C      0.992920000000     0.628540000000     0.154890000000    -0.0741378  
C177     C      0.035170000000     0.650550000000     0.187580000000    -0.0032964  
C178     C      0.028790000000     0.644760000000     0.241010000000    -0.00268736 
C179     C      0.979970000000     0.617890000000     0.262660000000    -0.0741719  
C180     C      0.937780000000     0.594900000000     0.229920000000    -0.00568531 
C181     C      0.926750000000     0.487360000000     0.944730000000    -0.00405995 
C182     C      0.974970000000     0.529860000000     0.938170000000    -0.0766511  
C183     C      0.016250000000     0.523030000000     0.926940000000    -0.00258556 
C184     C      0.010230000000     0.474780000000     0.926390000000    -0.00506466 
C185     C      0.962990000000     0.432620000000     0.937880000000    -0.0728753  
C186     C      0.920880000000     0.439120000000     0.945000000000    -0.00549399 
C187     C      0.155070000000     0.776830000000     0.898800000000    -0.00532274 
C188     C      0.114190000000     0.782170000000     0.915510000000    -0.0729012  
C189     C      0.111420000000     0.824630000000     0.900130000000    -0.00505066 
C190     C      0.149340000000     0.861520000000     0.868910000000    -0.00324702 
C191     C      0.189350000000     0.855340000000     0.850920000000    -0.0760411  
C192     C      0.191830000000     0.812660000000     0.865930000000    -0.0033571  
H1       H      0.386830000000     0.906820000000     0.269460000000     0.0526138  
H2       H      0.485300000000     0.067150000000     0.287470000000     0.0501822  
H3       H      0.559160000000     0.055840000000     0.284690000000     0.0512126  
H4       H      0.460600000000     0.895390000000     0.268010000000     0.0486529  
H5       H      0.583730000000     0.896390000000     0.591590000000     0.0512227  
H6       H      0.663790000000     0.057820000000     0.571520000000     0.050823   
H7       H      0.653380000000     0.046530000000     0.478180000000     0.0512649  
H8       H      0.574390000000     0.885070000000     0.498080000000     0.0509016  
H9       H      0.226080000000     0.942770000000     0.586910000000     0.0512236  
H10      H      0.386390000000     0.994020000000     0.586680000000     0.0511168  
H11      H      0.391540000000     0.018500000000     0.496080000000     0.0506907  
H12      H      0.231350000000     0.967870000000     0.496690000000     0.0496851  
H13      H      0.474450000000     0.046560000000     0.808870000000     0.0520792  
H14      H      0.405670000000     0.885540000000     0.791030000000     0.0500305  
H15      H      0.489580000000     0.893590000000     0.789670000000     0.0509254  
H16      H      0.558390000000     0.054740000000     0.806260000000     0.0486816  
H17      H      0.642700000000     0.735880000000     0.246210000000     0.0495608  
H18      H      0.645470000000     0.816320000000     0.108280000000     0.0508962  
H19      H      0.642260000000     0.880650000000     0.161290000000     0.0494527  
H20      H      0.638480000000     0.799670000000     0.299170000000     0.0506836  
H21      H      0.490640000000     0.398660000000     0.116570000000     0.0499323  
H22      H      0.397840000000     0.466530000000     0.142080000000     0.0529569  
H23      H      0.473610000000     0.549820000000     0.142190000000     0.0484319  
H24      H      0.566650000000     0.482070000000     0.118120000000     0.0505937  
H25      H      0.304270000000     0.072850000000     0.166410000000     0.0492345  
H26      H      0.293930000000     0.148620000000     0.302450000000     0.0492432  
H27      H      0.294430000000     0.214150000000     0.247960000000     0.0483618  
H28      H      0.305990000000     0.138850000000     0.112150000000     0.0510102  
H29      H      0.708600000000     0.780680000000     0.769550000000     0.0481682  
H30      H      0.705410000000     0.816760000000     0.608990000000     0.0472564  
H31      H      0.704260000000     0.893110000000     0.634600000000     0.0481541  
H32      H      0.704770000000     0.855620000000     0.795160000000     0.0471096  
H33      H      0.679600000000     0.584300000000     0.837180000000     0.0508065  
H34      H      0.595420000000     0.661820000000     0.815090000000     0.0510764  
H35      H      0.588030000000     0.666870000000     0.908540000000     0.0507792  
H36      H      0.671160000000     0.588280000000     0.930580000000     0.0511641  
H37      H      0.225890000000     0.055740000000     0.690710000000     0.0526031  
H38      H      0.377120000000     0.142630000000     0.753050000000     0.0525933  
H39      H      0.383700000000     0.219160000000     0.716620000000     0.0506199  
H40      H      0.232480000000     0.132080000000     0.654340000000     0.0507459  
H41      H      0.359460000000     0.393930000000     0.826030000000     0.0508857  
H42      H      0.245130000000     0.236450000000     0.820100000000     0.0503131  
H43      H      0.256800000000     0.228410000000     0.912040000000     0.0514729  
H44      H      0.370570000000     0.386040000000     0.918450000000     0.0509963  
H45      H      0.480440000000     0.397600000000     0.605510000000     0.0519181  
H46      H      0.413150000000     0.492200000000     0.616390000000     0.0501714  
H47      H      0.497560000000     0.566930000000     0.617130000000     0.0512772  
H48      H      0.564760000000     0.472220000000     0.607470000000     0.0487683  
H49      H      0.146520000000     0.753110000000     0.425180000000     0.0528279  
H50      H      0.048390000000     0.805080000000     0.365270000000     0.0509356  
H51      H      0.122060000000     0.879860000000     0.329990000000     0.0503347  
H52      H      0.219800000000     0.827180000000     0.389410000000     0.0509016  
H53      H      0.820280000000     0.646070000000     0.448550000000     0.0511906  
H54      H      0.895170000000     0.636860000000     0.586220000000     0.0491802  
H55      H      0.830950000000     0.640970000000     0.639480000000     0.0506967  
H56      H      0.756710000000     0.650990000000     0.501660000000     0.0499002  
H57      H      0.847820000000     0.127620000000     0.460220000000     0.0475103  
H58      H      0.890500000000     0.162250000000     0.300070000000     0.0471585  
H59      H      0.810290000000     0.088910000000     0.273630000000     0.0467605  
H60      H      0.768750000000     0.052730000000     0.433780000000     0.0483011  
H61      H      0.063630000000     0.466710000000     0.466280000000     0.0489955  
H62      H      0.901320000000     0.374420000000     0.450410000000     0.0519158  
H63      H      0.893330000000     0.449760000000     0.453880000000     0.0490857  
H64      H      0.055530000000     0.541940000000     0.471060000000     0.0511678  
H65      H      0.229850000000     0.311760000000     0.489530000000     0.0485056  
H66      H      0.139130000000     0.292880000000     0.624760000000     0.0498532  
H67      H      0.070850000000     0.286250000000     0.569840000000     0.0491624  
H68      H      0.161910000000     0.306360000000     0.434550000000     0.0503625  
H69      H      0.991900000000     0.248340000000     0.142140000000     0.0486652  
H70      H      0.930460000000     0.347420000000     0.160400000000     0.0496734  
H71      H      0.953190000000     0.357200000000     0.252230000000     0.0501809  
H72      H      0.015840000000     0.259270000000     0.233030000000     0.0545496  
H73      H      0.133310000000     0.380690000000     0.039300000000     0.0512978  
H74      H      0.065840000000     0.226910000000     0.986240000000     0.0506189  
H75      H      0.135720000000     0.220680000000     0.024110000000     0.0519084  
H76      H      0.203440000000     0.374480000000     0.077130000000     0.0519303  
H77      H      0.886210000000     0.219220000000     0.819670000000     0.048747   
H78      H      0.806900000000     0.138680000000     0.957140000000     0.0499793  
H79      H      0.744610000000     0.069760000000     0.903940000000     0.0500837  
H80      H      0.823140000000     0.150520000000     0.766250000000     0.0507239  
H81      H      0.896360000000     0.691690000000     0.113930000000     0.0486294  
H82      H      0.864620000000     0.705660000000     0.954260000000     0.0496086  
H83      H      0.787690000000     0.706150000000     0.980460000000     0.0472225  
H84      H      0.818010000000     0.689650000000     0.139960000000     0.0472333  
H85      H      0.910930000000     0.582600000000     0.151990000000     0.0499375  
H86      H      0.073010000000     0.672990000000     0.171940000000     0.0498457  
H87      H      0.062040000000     0.663110000000     0.265450000000     0.0510198  
H88      H      0.899830000000     0.574010000000     0.245660000000     0.0499563  
H89      H      0.894290000000     0.491520000000     0.953580000000     0.0507317  
H90      H      0.053820000000     0.555180000000     0.921560000000     0.0484981  
H91      H      0.043330000000     0.470930000000     0.920570000000     0.0519574  
H92      H      0.883930000000     0.407200000000     0.953570000000     0.0504355  
H93      H      0.157750000000     0.744180000000     0.909900000000     0.0467912  
H94      H      0.080150000000     0.829430000000     0.912570000000     0.045402   
H95      H      0.146670000000     0.894140000000     0.857650000000     0.04495    
H96      H      0.222500000000     0.807280000000     0.852640000000     0.0447707  
In1      In     0.998670000000     0.664990000000     0.999850000000     2.40561    
In2      In     0.958590000000     0.300870000000     0.984900000000     2.40793    
In3      In     0.996410000000     0.293330000000     0.406940000000     2.40771    
In4      In     0.970130000000     0.630680000000     0.421310000000     2.42226    
In5      In     0.305700000000     0.313170000000     0.656400000000     2.41065    
In6      In     0.673790000000     0.646500000000     0.662960000000     2.42321    
In7      In     0.308360000000     0.296620000000     0.082010000000     2.4123     
In8      In     0.647740000000     0.659260000000     0.083770000000     2.42891    
In9      In     0.301070000000     0.960850000000     0.753200000000     2.41234    
In10     In     0.665330000000     0.989340000000     0.743130000000     2.42805    
In11     In     0.305750000000     0.996510000000     0.330200000000     2.40172    
In12     In     0.635210000000     0.955940000000     0.324280000000     2.42646    
O1       O      0.966810000000     0.705540000000     0.045680000000    -0.487762   
O2       O      0.927790000000     0.667700000000     0.976730000000    -0.470902   
O3       O      0.082290000000     0.718850000000     0.981750000000    -0.476678   
O4       O      0.035730000000     0.677690000000     0.079630000000    -0.468486   
O5       O      0.948640000000     0.590210000000     0.957790000000    -0.474715   
O6       O      0.963210000000     0.612890000000     0.067940000000    -0.491418   
O7       O      0.027410000000     0.727630000000     0.939370000000    -0.488567   
O8       O      0.026530000000     0.614170000000     0.968020000000    -0.494276   
O9       O      0.010460000000     0.267970000000     0.974180000000    -0.481307   
O10      O      0.043600000000     0.343590000000     0.000080000000    -0.478553   
O11      O      0.882050000000     0.229790000000     0.972460000000    -0.490833   
O12      O      0.950760000000     0.260410000000     0.060760000000    -0.485886   
O13      O      0.995130000000     0.375160000000     0.940790000000    -0.480818   
O14      O      0.946580000000     0.327310000000     0.063690000000    -0.474761   
O15      O      0.930990000000     0.260050000000     0.907640000000    -0.490926   
O16      O      0.922550000000     0.349700000000     0.974530000000    -0.48489    
O17      O      0.959690000000     0.216580000000     0.369340000000    -0.491644   
O18      O      0.920550000000     0.225860000000     0.432550000000    -0.470785   
O19      O      0.077480000000     0.309000000000     0.418950000000    -0.480938   
O20      O      0.025760000000     0.297780000000     0.324960000000    -0.464913   
O21      O      0.951890000000     0.326450000000     0.444550000000    -0.475431   
O22      O      0.970370000000     0.319610000000     0.337390000000    -0.484221   
O23      O      0.025730000000     0.277110000000     0.481390000000    -0.496696   
O24      O      0.029750000000     0.376070000000     0.427000000000    -0.490155   
O25      O      0.003400000000     0.712470000000     0.397880000000    -0.491563   
O26      O      0.050920000000     0.692150000000     0.439220000000    -0.474375   
O27      O      0.895520000000     0.630030000000     0.432620000000    -0.484304   
O28      O      0.933400000000     0.609790000000     0.340940000000    -0.469666   
O29      O      0.006260000000     0.591080000000     0.463320000000    -0.476943   
O30      O      0.010590000000     0.629220000000     0.349020000000    -0.492456   
O31      O      0.941150000000     0.641510000000     0.499010000000    -0.495939   
O32      O      0.933360000000     0.545800000000     0.429870000000    -0.496421   
O33      O      0.272850000000     0.228640000000     0.645570000000    -0.484102   
O34      O      0.347730000000     0.271140000000     0.674790000000    -0.481799   
O35      O      0.232900000000     0.315570000000     0.642670000000    -0.490564   
O36      O      0.265360000000     0.282700000000     0.733080000000    -0.485537   
O37      O      0.382240000000     0.349880000000     0.615560000000    -0.478763   
O38      O      0.331360000000     0.354840000000     0.733460000000    -0.477515   
O39      O      0.266980000000     0.301660000000     0.577890000000    -0.491027   
O40      O      0.355090000000     0.397410000000     0.643460000000    -0.483808   
O41      O      0.719100000000     0.722830000000     0.700960000000    -0.493163   
O42      O      0.672620000000     0.717320000000     0.637000000000    -0.474447   
O43      O      0.743870000000     0.637770000000     0.654350000000    -0.480889   
O44      O      0.683310000000     0.620640000000     0.743120000000    -0.469597   
O45      O      0.596800000000     0.613870000000     0.622970000000    -0.477498   
O46      O      0.625480000000     0.639520000000     0.731930000000    -0.491855   
O47      O      0.717030000000     0.657760000000     0.587760000000    -0.498097   
O48      O      0.622820000000     0.563650000000     0.644220000000    -0.497451   
O49      O      0.224040000000     0.256490000000     0.064520000000    -0.489376   
O50      O      0.258140000000     0.331980000000     0.090850000000    -0.473528   
O51      O      0.318140000000     0.228620000000     0.096730000000    -0.486847   
O52      O      0.297010000000     0.260880000000     0.002180000000    -0.472719   
O53      O      0.348330000000     0.369920000000     0.127150000000    -0.475855   
O54      O      0.339060000000     0.340570000000     0.007250000000    -0.483493   
O55      O      0.289770000000     0.253140000000     0.158420000000    -0.493957   
O56      O      0.393850000000     0.343560000000     0.091520000000    -0.485343   
O57      O      0.725240000000     0.707770000000     0.048720000000    -0.495169   
O58      O      0.719370000000     0.659210000000     0.110490000000    -0.475453   
O59      O      0.638010000000     0.728110000000     0.093050000000    -0.481767   
O60      O      0.622440000000     0.669290000000     0.003420000000    -0.468384   
O61      O      0.615040000000     0.581540000000     0.121030000000    -0.477939   
O62      O      0.644510000000     0.613970000000     0.013780000000    -0.491339   
O63      O      0.655840000000     0.699770000000     0.160000000000    -0.497455   
O64      O      0.564360000000     0.607710000000     0.101230000000    -0.498751   
O65      O      0.261380000000     0.003750000000     0.731380000000    -0.485033   
O66      O      0.334840000000     0.045450000000     0.764910000000    -0.46823    
O67      O      0.245490000000     0.880300000000     0.778270000000    -0.487151   
O68      O      0.262610000000     0.933890000000     0.674540000000    -0.476185   
O69      O      0.375630000000     0.997280000000     0.797930000000    -0.473488   
O70      O      0.342930000000     0.976000000000     0.676920000000    -0.489994   
O71      O      0.246950000000     0.939600000000     0.822170000000    -0.491574   
O72      O      0.350560000000     0.925720000000     0.762920000000    -0.485981   
O73      O      0.711800000000     0.960320000000     0.703370000000    -0.494915   
O74      O      0.667140000000     0.918550000000     0.767890000000    -0.476403   
O75      O      0.735000000000     0.067910000000     0.751200000000    -0.480321   
O76      O      0.671680000000     0.024810000000     0.663750000000    -0.469968   
O77      O      0.588960000000     0.944700000000     0.784080000000    -0.477536   
O78      O      0.615500000000     0.947850000000     0.675210000000    -0.492415   
O79      O      0.708370000000     0.021490000000     0.818090000000    -0.498297   
O80      O      0.614950000000     0.021280000000     0.764780000000    -0.496787   
O81      O      0.219910000000     0.944060000000     0.324350000000    -0.479504   
O82      O      0.265700000000     0.912160000000     0.343270000000    -0.481997   
O83      O      0.309780000000     0.072550000000     0.319150000000    -0.490006   
O84      O      0.276090000000     0.001560000000     0.409400000000    -0.48382    
O85      O      0.341020000000     0.958310000000     0.284330000000    -0.473201   
O86      O      0.349850000000     0.011060000000     0.405570000000    -0.475207   
O87      O      0.292680000000     0.025170000000     0.253550000000    -0.492986   
O88      O      0.390350000000     0.030500000000     0.316800000000    -0.478563   
O89      O      0.710800000000     0.984720000000     0.363830000000    -0.494603   
O90      O      0.707930000000     0.027540000000     0.300410000000    -0.473951   
O91      O      0.626740000000     0.878010000000     0.313800000000    -0.482334   
O92      O      0.607820000000     0.918640000000     0.403410000000    -0.469258   
O93      O      0.604170000000     0.002140000000     0.286160000000    -0.478017   
O94      O      0.629050000000     0.995860000000     0.394530000000    -0.493256   
O95      O      0.647770000000     0.926220000000     0.248310000000    -0.49789    
O96      O      0.552240000000     0.925620000000     0.304730000000    -0.497896   


