data_structure

_audit_creation_method RASPA-1.0
_audit_creation_date 2023-5-22
_audit_author_name 'Poobodin Mano'

_cell_length_a    23.9694
_cell_length_b    23.9378
_cell_length_c    29.2217
_cell_angle_alpha 90
_cell_angle_beta  90
_cell_angle_gamma 90
_cell_volume      16766.7

_symmetry_cell_setting          triclinic
_symmetry_space_group_name_Hall 'P 1'
_symmetry_space_group_name_H-M  'P 1'
_symmetry_Int_Tables_number     1

_symmetry_equiv_pos_as_xyz 'x,y,z'

loop_
_atom_site_label
_atom_site_type_symbol
_atom_site_fract_x
_atom_site_fract_y
_atom_site_fract_z
_atom_site_charge
C1       C      0.962120000000     0.462830000000     0.867390000000     0.349871   
C2       C      0.962120000000     0.341910000000     0.746590000000     0.349597   
C3       C      0.841210000000     0.341910000000     0.867390000000     0.34987    
C4       C      0.841210000000     0.462830000000     0.746590000000     0.349759   
C5       C      0.091210000000     0.712830000000     0.117390000000     0.34976    
C6       C      0.212120000000     0.712830000000     0.996590000000     0.349334   
C7       C      0.212120000000     0.591910000000     0.117390000000     0.34985    
C8       C      0.091210000000     0.591910000000     0.996590000000     0.349329   
C9       C      0.462120000000     0.962830000000     0.867390000000     0.349878   
C10      C      0.341210000000     0.841910000000     0.867390000000     0.349867   
C11      C      0.341210000000     0.962830000000     0.746590000000     0.349774   
C12      C      0.462120000000     0.841910000000     0.746590000000     0.349596   
C13      C      0.712130000000     0.212830000000     0.996590000000     0.349302   
C14      C      0.591210000000     0.212830000000     0.117390000000     0.349762   
C15      C      0.591210000000     0.091910000000     0.996590000000     0.349187   
C16      C      0.712130000000     0.091910000000     0.117390000000     0.349536   
C17      C      0.341210000000     0.462830000000     0.246590000000     0.349736   
C18      C      0.462120000000     0.341910000000     0.246590000000     0.349567   
C19      C      0.462120000000     0.462830000000     0.367390000000     0.34983    
C20      C      0.341210000000     0.341910000000     0.367390000000     0.349826   
C21      C      0.712130000000     0.591910000000     0.617390000000     0.349832   
C22      C      0.591210000000     0.712830000000     0.617390000000     0.349768   
C23      C      0.712130000000     0.712830000000     0.496590000000     0.349841   
C24      C      0.591210000000     0.591910000000     0.496590000000     0.349728   
C25      C      0.962120000000     0.841910000000     0.246590000000     0.349567   
C26      C      0.962120000000     0.962830000000     0.367390000000     0.349833   
C27      C      0.841210000000     0.962830000000     0.246590000000     0.349738   
C28      C      0.841210000000     0.841910000000     0.367390000000     0.349824   
C29      C      0.091210000000     0.212830000000     0.617390000000     0.34976    
C30      C      0.212120000000     0.212830000000     0.496590000000     0.349869   
C31      C      0.212120000000     0.091910000000     0.617390000000     0.34956    
C32      C      0.091210000000     0.091910000000     0.496590000000     0.349862   
C33      C      0.975540000000     0.047740000000     0.416100000000    -0.00545641 
C34      C      0.995140000000     0.995840000000     0.400430000000    -0.0754391  
C35      C      0.046560000000     0.975770000000     0.416610000000    -0.00544044 
C36      C      0.077790000000     0.007000000000     0.447880000000    -0.00543709 
C37      C      0.058190000000     0.058900000000     0.463560000000    -0.0754859  
C38      C      0.006770000000     0.078970000000     0.447370000000    -0.00542426 
C39      C      0.796560000000     0.725770000000     0.447370000000    -0.00539864 
C40      C      0.745140000000     0.745840000000     0.463560000000    -0.0755125  
C41      C      0.725540000000     0.797740000000     0.447880000000    -0.00544218 
C42      C      0.756770000000     0.828970000000     0.416610000000    -0.00544178 
C43      C      0.808190000000     0.808900000000     0.400430000000    -0.0754293  
C44      C      0.827790000000     0.757000000000     0.416100000000    -0.00547978 
C45      C      0.327790000000     0.257000000000     0.416100000000    -0.00546382 
C46      C      0.308190000000     0.308900000000     0.400430000000    -0.0754341  
C47      C      0.256770000000     0.328970000000     0.416610000000    -0.00544265 
C48      C      0.225540000000     0.297740000000     0.447880000000    -0.00543726 
C49      C      0.245140000000     0.245840000000     0.463560000000    -0.0754868  
C50      C      0.296560000000     0.225770000000     0.447370000000    -0.00541135 
C51      C      0.546560000000     0.475770000000     0.416610000000    -0.00546117 
C52      C      0.495140000000     0.495840000000     0.400430000000    -0.0754289  
C53      C      0.475540000000     0.547740000000     0.416100000000    -0.00545064 
C54      C      0.506770000000     0.578970000000     0.447370000000    -0.00544683 
C55      C      0.558200000000     0.558900000000     0.463560000000    -0.0754557  
C56      C      0.577790000000     0.507000000000     0.447880000000    -0.00543454 
C57      C      0.828120000000     0.047410000000     0.197440000000    -0.00543993 
C58      C      0.808190000000     0.995840000000     0.213560000000    -0.0754446  
C59      C      0.756440000000     0.976100000000     0.197810000000    -0.0054234  
C60      C      0.725210000000     0.007330000000     0.166540000000    -0.00549656 
C61      C      0.745140000000     0.058900000000     0.150430000000    -0.07534    
C62      C      0.796890000000     0.078640000000     0.166170000000    -0.00548704 
C63      C      0.578120000000     0.297410000000     0.166540000000    -0.00541603 
C64      C      0.558200000000     0.245840000000     0.150430000000    -0.0754325  
C65      C      0.506440000000     0.226100000000     0.166170000000    -0.00543494 
C66      C      0.475210000000     0.257330000000     0.197440000000    -0.00549533 
C67      C      0.495140000000     0.308900000000     0.213560000000    -0.0753536  
C68      C      0.546890000000     0.328640000000     0.197810000000    -0.0054884  
C69      C      0.328120000000     0.047410000000     0.697440000000    -0.00541161 
C70      C      0.308190000000     0.995840000000     0.713560000000    -0.0754763  
C71      C      0.256440000000     0.976100000000     0.697810000000    -0.00541399 
C72      C      0.225210000000     0.007330000000     0.666540000000    -0.0055263  
C73      C      0.245140000000     0.058900000000     0.650430000000    -0.0753144  
C74      C      0.296890000000     0.078640000000     0.666170000000    -0.00551675 
C75      C      0.475210000000     0.757330000000     0.697440000000    -0.00549881 
C76      C      0.495140000000     0.808900000000     0.713560000000    -0.0753676  
C77      C      0.546890000000     0.828640000000     0.697810000000    -0.00549428 
C78      C      0.578120000000     0.797410000000     0.666540000000    -0.00542191 
C79      C      0.558200000000     0.745840000000     0.650430000000    -0.0754477  
C80      C      0.506440000000     0.726100000000     0.666170000000    -0.00544115 
C81      C      0.546560000000     0.975770000000     0.916610000000    -0.00538698 
C82      C      0.495140000000     0.995840000000     0.900420000000    -0.0755343  
C83      C      0.475540000000     0.047740000000     0.916100000000    -0.0053966  
C84      C      0.506770000000     0.078970000000     0.947370000000    -0.00556455 
C85      C      0.558200000000     0.058900000000     0.963560000000    -0.0753019  
C86      C      0.577790000000     0.007000000000     0.947880000000    -0.00555294 
C87      C      0.006440000000     0.726100000000     0.166170000000    -0.00543241 
C88      C      0.058200000000     0.745840000000     0.150430000000    -0.0754357  
C89      C      0.078120000000     0.797410000000     0.166540000000    -0.0054154  
C90      C      0.046890000000     0.828640000000     0.197810000000    -0.00548742 
C91      C      0.995140000000     0.808900000000     0.213560000000    -0.0753556  
C92      C      0.975210000000     0.757330000000     0.197440000000    -0.00549702 
C93      C      0.225540000000     0.797740000000     0.947880000000    -0.00554254 
C94      C      0.245140000000     0.745840000000     0.963560000000    -0.0753431  
C95      C      0.296560000000     0.725770000000     0.947370000000    -0.0055148  
C96      C      0.327790000000     0.757000000000     0.916100000000    -0.00543355 
C97      C      0.308190000000     0.808900000000     0.900420000000    -0.0755197  
C98      C      0.256770000000     0.828970000000     0.916610000000    -0.00539604 
C99      C      0.296890000000     0.578640000000     0.166170000000    -0.00544927 
C100     C      0.245140000000     0.558900000000     0.150430000000    -0.0754236  
C101     C      0.225210000000     0.507330000000     0.166540000000    -0.00546529 
C102     C      0.256440000000     0.476100000000     0.197810000000    -0.00543686 
C103     C      0.308190000000     0.495840000000     0.213560000000    -0.0754373  
C104     C      0.328120000000     0.547410000000     0.197440000000    -0.00544123 
C105     C      0.975210000000     0.257330000000     0.697440000000    -0.00550012 
C106     C      0.995140000000     0.308900000000     0.713560000000    -0.0753695  
C107     C      0.046890000000     0.328640000000     0.697810000000    -0.00549247 
C108     C      0.078120000000     0.297410000000     0.666540000000    -0.00542131 
C109     C      0.058200000000     0.245840000000     0.650430000000    -0.0754496  
C110     C      0.006440000000     0.226100000000     0.666170000000    -0.00543939 
C111     C      0.756770000000     0.328970000000     0.916610000000    -0.00538828 
C112     C      0.808190000000     0.308900000000     0.900420000000    -0.0755256  
C113     C      0.827790000000     0.257000000000     0.916100000000    -0.0054177  
C114     C      0.796560000000     0.225770000000     0.947370000000    -0.00551959 
C115     C      0.745140000000     0.245840000000     0.963560000000    -0.0753592  
C116     C      0.725540000000     0.297740000000     0.947880000000    -0.00555314 
C117     C      0.756440000000     0.476100000000     0.697810000000    -0.00545719 
C118     C      0.808190000000     0.495840000000     0.713560000000    -0.0754336  
C119     C      0.828120000000     0.547410000000     0.697440000000    -0.00547615 
C120     C      0.796890000000     0.578640000000     0.666170000000    -0.00543273 
C121     C      0.745140000000     0.558900000000     0.650430000000    -0.0754783  
C122     C      0.725210000000     0.507330000000     0.666540000000    -0.00544733 
C123     C      0.975540000000     0.547740000000     0.916100000000    -0.00541809 
C124     C      0.995140000000     0.495840000000     0.900420000000    -0.0755156  
C125     C      0.046560000000     0.475770000000     0.916610000000    -0.00541448 
C126     C      0.077790000000     0.507000000000     0.947880000000    -0.00553495 
C127     C      0.058190000000     0.558900000000     0.963560000000    -0.0753428  
C128     C      0.006770000000     0.578970000000     0.947370000000    -0.00553094 
H1       H      0.936040000000     0.064280000000     0.404220000000     0.0510464  
H2       H      0.062730000000     0.935900000000     0.405130000000     0.0510289  
H3       H      0.117290000000     0.990460000000     0.459750000000     0.0510359  
H4       H      0.990610000000     0.118840000000     0.458850000000     0.051028   
H5       H      0.812730000000     0.685900000000     0.458850000000     0.0510176  
H6       H      0.686050000000     0.814280000000     0.459750000000     0.0510411  
H7       H      0.740600000000     0.868840000000     0.405130000000     0.0510283  
H8       H      0.867290000000     0.740470000000     0.404220000000     0.0510548  
H9       H      0.367290000000     0.240460000000     0.404220000000     0.0510468  
H10      H      0.240600000000     0.368840000000     0.405130000000     0.0510291  
H11      H      0.186040000000     0.314280000000     0.459750000000     0.0510387  
H12      H      0.312730000000     0.185900000000     0.458850000000     0.0510225  
H13      H      0.562730000000     0.435910000000     0.405130000000     0.0510372  
H14      H      0.436040000000     0.564280000000     0.404220000000     0.051045   
H15      H      0.490610000000     0.618840000000     0.458850000000     0.0510379  
H16      H      0.617290000000     0.490460000000     0.459750000000     0.0510388  
H17      H      0.867870000000     0.063690000000     0.208970000000     0.0510489  
H18      H      0.740020000000     0.936490000000     0.209630000000     0.0510408  
H19      H      0.685460000000     0.991050000000     0.155010000000     0.0510702  
H20      H      0.813310000000     0.118250000000     0.154350000000     0.0510616  
H21      H      0.617880000000     0.313690000000     0.155010000000     0.0510501  
H22      H      0.490020000000     0.186490000000     0.154350000000     0.0510512  
H23      H      0.435460000000     0.241050000000     0.208970000000     0.0510641  
H24      H      0.563310000000     0.368250000000     0.209630000000     0.051059   
H25      H      0.367880000000     0.063690000000     0.708970000000     0.0510282  
H26      H      0.240020000000     0.936490000000     0.709630000000     0.0510245  
H27      H      0.185460000000     0.991050000000     0.655010000000     0.0510589  
H28      H      0.313310000000     0.118250000000     0.654350000000     0.0510522  
H29      H      0.435460000000     0.741050000000     0.708970000000     0.0510535  
H30      H      0.563310000000     0.868250000000     0.709630000000     0.051046   
H31      H      0.617880000000     0.813690000000     0.655010000000     0.0510311  
H32      H      0.490020000000     0.686490000000     0.654350000000     0.0510336  
H33      H      0.562730000000     0.935900000000     0.905130000000     0.0509946  
H34      H      0.436040000000     0.064280000000     0.904230000000     0.0510079  
H35      H      0.490610000000     0.118840000000     0.958850000000     0.0510137  
H36      H      0.617290000000     0.990460000000     0.959760000000     0.0510151  
H37      H      0.990020000000     0.686490000000     0.154350000000     0.0510492  
H38      H      0.117880000000     0.813690000000     0.155010000000     0.0510486  
H39      H      0.063310000000     0.868250000000     0.209630000000     0.0510582  
H40      H      0.935460000000     0.741050000000     0.208970000000     0.0510646  
H41      H      0.186040000000     0.814280000000     0.959760000000     0.0510128  
H42      H      0.312730000000     0.685900000000     0.958850000000     0.0509954  
H43      H      0.367290000000     0.740470000000     0.904230000000     0.0510196  
H44      H      0.240600000000     0.868840000000     0.905130000000     0.0509958  
H45      H      0.313310000000     0.618250000000     0.154350000000     0.0510534  
H46      H      0.185460000000     0.491050000000     0.155010000000     0.0510606  
H47      H      0.240020000000     0.436490000000     0.209630000000     0.0510445  
H48      H      0.367880000000     0.563690000000     0.208970000000     0.0510467  
H49      H      0.935460000000     0.241050000000     0.708970000000     0.0510537  
H50      H      0.063310000000     0.368250000000     0.709630000000     0.0510463  
H51      H      0.117880000000     0.313690000000     0.655010000000     0.0510315  
H52      H      0.990020000000     0.186490000000     0.654350000000     0.0510304  
H53      H      0.740600000000     0.368840000000     0.905130000000     0.0509945  
H54      H      0.867290000000     0.240460000000     0.904230000000     0.0510113  
H55      H      0.812730000000     0.185900000000     0.958850000000     0.0509936  
H56      H      0.686050000000     0.314280000000     0.959760000000     0.0510177  
H57      H      0.740020000000     0.436490000000     0.709630000000     0.0510358  
H58      H      0.867870000000     0.563690000000     0.708970000000     0.051046   
H59      H      0.813310000000     0.618250000000     0.654350000000     0.0510264  
H60      H      0.685460000000     0.491050000000     0.655010000000     0.0510357  
H61      H      0.936040000000     0.564280000000     0.904230000000     0.0510128  
H62      H      0.062730000000     0.435910000000     0.905130000000     0.0510044  
H63      H      0.117290000000     0.490460000000     0.959760000000     0.0510104  
H64      H      0.990610000000     0.618840000000     0.958850000000     0.051001   
In1      In     0.901670000000     0.402370000000     0.806990000000     2.40347    
In2      In     0.151670000000     0.652370000000     0.056990000000     2.40355    
In3      In     0.401670000000     0.902370000000     0.806990000000     2.40347    
In4      In     0.651660000000     0.152370000000     0.056990000000     2.40345    
In5      In     0.401670000000     0.402370000000     0.306990000000     2.40363    
In6      In     0.651660000000     0.652370000000     0.556990000000     2.4036     
In7      In     0.901670000000     0.902370000000     0.306990000000     2.40363    
In8      In     0.151670000000     0.152370000000     0.556990000000     2.40348    
O1       O      0.887830000000     0.478860000000     0.761670000000    -0.483115   
O2       O      0.825030000000     0.416360000000     0.761990000000    -0.483191   
O3       O      0.978300000000     0.388390000000     0.761990000000    -0.483187   
O4       O      0.978020000000     0.416080000000     0.852370000000    -0.483307   
O5       O      0.887550000000     0.325610000000     0.851930000000    -0.483213   
O6       O      0.915780000000     0.479130000000     0.851930000000    -0.483218   
O7       O      0.915500000000     0.325880000000     0.761670000000    -0.483086   
O8       O      0.825310000000     0.388660000000     0.852370000000    -0.483232   
O9       O      0.075310000000     0.638660000000     0.011610000000    -0.482938   
O10      O      0.137550000000     0.575610000000     0.012050000000    -0.482914   
O11      O      0.165780000000     0.729130000000     0.012050000000    -0.48293    
O12      O      0.137830000000     0.728860000000     0.102310000000    -0.483106   
O13      O      0.165500000000     0.575890000000     0.102310000000    -0.483223   
O14      O      0.075030000000     0.666360000000     0.101990000000    -0.483172   
O15      O      0.228020000000     0.666080000000     0.011610000000    -0.483013   
O16      O      0.228300000000     0.638380000000     0.101990000000    -0.483267   
O17      O      0.478300000000     0.888390000000     0.761990000000    -0.483187   
O18      O      0.415500000000     0.825880000000     0.761670000000    -0.483086   
O19      O      0.325310000000     0.888660000000     0.852370000000    -0.483231   
O20      O      0.478020000000     0.916080000000     0.852370000000    -0.483308   
O21      O      0.387830000000     0.978860000000     0.761670000000    -0.483121   
O22      O      0.415780000000     0.979130000000     0.851930000000    -0.483221   
O23      O      0.387550000000     0.825610000000     0.851930000000    -0.483213   
O24      O      0.325030000000     0.916360000000     0.761990000000    -0.483196   
O25      O      0.728300000000     0.138390000000     0.101990000000    -0.48309    
O26      O      0.665500000000     0.075880000000     0.102310000000    -0.482993   
O27      O      0.575030000000     0.166360000000     0.101990000000    -0.483249   
O28      O      0.665780000000     0.229130000000     0.012050000000    -0.482851   
O29      O      0.637560000000     0.075610000000     0.012050000000    -0.482846   
O30      O      0.728020000000     0.166080000000     0.011610000000    -0.482933   
O31      O      0.637830000000     0.228860000000     0.102310000000    -0.483105   
O32      O      0.575310000000     0.138660000000     0.011610000000    -0.482968   
O33      O      0.325310000000     0.388660000000     0.352370000000    -0.483219   
O34      O      0.387550000000     0.325610000000     0.351930000000    -0.483191   
O35      O      0.415500000000     0.325880000000     0.261680000000    -0.483117   
O36      O      0.325030000000     0.416360000000     0.261990000000    -0.483184   
O37      O      0.478020000000     0.416080000000     0.352370000000    -0.483293   
O38      O      0.387830000000     0.478860000000     0.261680000000    -0.483149   
O39      O      0.478300000000     0.388390000000     0.261990000000    -0.483177   
O40      O      0.415780000000     0.479130000000     0.351930000000    -0.483197   
O41      O      0.637560000000     0.575610000000     0.512050000000    -0.48314    
O42      O      0.575310000000     0.638660000000     0.511610000000    -0.483269   
O43      O      0.637830000000     0.728860000000     0.602310000000    -0.48314    
O44      O      0.665500000000     0.575890000000     0.602310000000    -0.483183   
O45      O      0.728020000000     0.666080000000     0.511610000000    -0.483234   
O46      O      0.728300000000     0.638380000000     0.601990000000    -0.483225   
O47      O      0.575030000000     0.666360000000     0.601990000000    -0.483274   
O48      O      0.665780000000     0.729130000000     0.512050000000    -0.483154   
O49      O      0.887550000000     0.825610000000     0.351930000000    -0.483192   
O50      O      0.825310000000     0.888660000000     0.352370000000    -0.483219   
O51      O      0.915780000000     0.979130000000     0.351930000000    -0.483199   
O52      O      0.978300000000     0.888390000000     0.261990000000    -0.483178   
O53      O      0.825030000000     0.916360000000     0.261990000000    -0.483184   
O54      O      0.915500000000     0.825880000000     0.261680000000    -0.483117   
O55      O      0.978020000000     0.916080000000     0.352370000000    -0.483296   
O56      O      0.887830000000     0.978860000000     0.261680000000    -0.48315    
O57      O      0.075310000000     0.138660000000     0.511610000000    -0.483219   
O58      O      0.137550000000     0.075610000000     0.512050000000    -0.483199   
O59      O      0.165780000000     0.229130000000     0.512050000000    -0.483206   
O60      O      0.137830000000     0.228860000000     0.602310000000    -0.483115   
O61      O      0.165500000000     0.075880000000     0.602310000000    -0.483077   
O62      O      0.075030000000     0.166360000000     0.601990000000    -0.483192   
O63      O      0.228020000000     0.166080000000     0.511610000000    -0.483294   
O64      O      0.228300000000     0.138390000000     0.601990000000    -0.483177   


