data_structure

_audit_creation_method RASPA-1.0
_audit_creation_date 2023-5-22
_audit_author_name 'Poobodin Mano'

_cell_length_a    33.9853
_cell_length_b    34.0659
_cell_length_c    25.7315
_cell_angle_alpha 89.9995
_cell_angle_beta  89.9999
_cell_angle_gamma 89.9997
_cell_volume      29790.4

_symmetry_cell_setting          triclinic
_symmetry_space_group_name_Hall 'P 1'
_symmetry_space_group_name_H-M  'P 1'
_symmetry_Int_Tables_number     1

_symmetry_equiv_pos_as_xyz 'x,y,z'

loop_
_atom_site_label
_atom_site_type_symbol
_atom_site_fract_x
_atom_site_fract_y
_atom_site_fract_z
_atom_site_charge
C1       C      0.797180000000     0.822500000000     0.435120000000     0.361985   
C2       C      0.754770000000     0.777910000000     0.272660000000     0.357699   
C3       C      0.785930000000     0.901410000000     0.307950000000     0.343539   
C4       C      0.878310000000     0.810070000000     0.311190000000     0.343755   
C5       C      0.797250000000     0.822850000000     0.659680000000     0.362003   
C6       C      0.754860000000     0.778870000000     0.822440000000     0.357879   
C7       C      0.878300000000     0.811070000000     0.784070000000     0.343795   
C8       C      0.785790000000     0.902360000000     0.785720000000     0.34336    
C9       C      0.632390000000     0.570930000000     0.046580000000     0.34957    
C10      C      0.664340000000     0.687540000000     0.968640000000     0.349036   
C11      C      0.547800000000     0.655700000000     0.047120000000     0.348627   
C12      C      0.664280000000     0.687040000000     0.125980000000     0.349026   
C13      C      0.795580000000     0.149450000000     0.432370000000     0.362048   
C14      C      0.753080000000     0.193370000000     0.269620000000     0.357821   
C15      C      0.876630000000     0.162220000000     0.307890000000     0.343844   
C16      C      0.785080000000     0.069970000000     0.306360000000     0.343412   
C17      C      0.795520000000     0.149780000000     0.656930000000     0.361994   
C18      C      0.753100000000     0.194360000000     0.819390000000     0.357821   
C19      C      0.784980000000     0.070910000000     0.784210000000     0.343385   
C20      C      0.876680000000     0.162910000000     0.780780000000     0.343727   
C21      C      0.546160000000     0.317330000000     0.044880000000     0.34929    
C22      C      0.662600000000     0.285240000000     0.966060000000     0.349118   
C23      C      0.631460000000     0.401400000000     0.045480000000     0.349245   
C24      C      0.662550000000     0.284660000000     0.123400000000     0.348821   
C25      C      0.128560000000     0.824140000000     0.435220000000     0.362017   
C26      C      0.171010000000     0.779550000000     0.272810000000     0.357618   
C27      C      0.047380000000     0.810850000000     0.311300000000     0.343458   
C28      C      0.138920000000     0.902980000000     0.307940000000     0.343488   
C29      C      0.128480000000     0.824500000000     0.659770000000     0.362166   
C30      C      0.170870000000     0.780540000000     0.822580000000     0.357803   
C31      C      0.139110000000     0.903960000000     0.785840000000     0.343462   
C32      C      0.047370000000     0.811880000000     0.784080000000     0.34361    
C33      C      0.377870000000     0.656580000000     0.047180000000     0.349149   
C34      C      0.261380000000     0.689230000000     0.968800000000     0.348968   
C35      C      0.292570000000     0.572500000000     0.046650000000     0.349164   
C36      C      0.261520000000     0.688690000000     0.126140000000     0.349128   
C37      C      0.126710000000     0.151080000000     0.432220000000     0.362305   
C38      C      0.169130000000     0.195000000000     0.269410000000     0.357756   
C39      C      0.138050000000     0.071540000000     0.306300000000     0.343506   
C40      C      0.045680000000     0.163000000000     0.307750000000     0.343529   
C41      C      0.126850000000     0.151400000000     0.656770000000     0.361927   
C42      C      0.169290000000     0.196040000000     0.819190000000     0.357716   
C43      C      0.045760000000     0.163710000000     0.780740000000     0.34359    
C44      C      0.138260000000     0.072510000000     0.784060000000     0.343653   
C45      C      0.291640000000     0.402970000000     0.045420000000     0.34961    
C46      C      0.259750000000     0.286930000000     0.965870000000     0.349046   
C47      C      0.376230000000     0.318200000000     0.044810000000     0.348936   
C48      C      0.259680000000     0.286300000000     0.123210000000     0.348852   
C49      C      0.230910000000     0.207690000000     0.870080000000    -0.00357978 
C50      C      0.193760000000     0.220780000000     0.853530000000    -0.0819957  
C51      C      0.179450000000     0.256860000000     0.872030000000    -0.00352493 
C52      C      0.201380000000     0.278890000000     0.907560000000    -0.00718141 
C53      C      0.238020000000     0.265240000000     0.925270000000    -0.0745282  
C54      C      0.252820000000     0.229700000000     0.905630000000    -0.00712963 
C55      C      0.230350000000     0.206190000000     0.217480000000    -0.00359675 
C56      C      0.193620000000     0.219700000000     0.235030000000    -0.0820387  
C57      C      0.179730000000     0.256240000000     0.217580000000    -0.00359023 
C58      C      0.201680000000     0.278370000000     0.182180000000    -0.0072206  
C59      C      0.237920000000     0.264360000000     0.163550000000    -0.0745927  
C60      C      0.252290000000     0.228310000000     0.182070000000    -0.00721471 
C61      C      0.104520000000     0.125040000000     0.517540000000    -0.00343659 
C62      C      0.127810000000     0.151760000000     0.489630000000    -0.077674   
C63      C      0.151380000000     0.178600000000     0.517120000000    -0.00458032 
C64      C      0.151400000000     0.178680000000     0.571680000000    -0.00464455 
C65      C      0.127880000000     0.151910000000     0.599350000000    -0.0774944  
C66      C      0.104560000000     0.125110000000     0.571630000000    -0.00358043 
C67      C      0.289980000000     0.467430000000     0.998830000000    -0.00503166 
C68      C      0.290260000000     0.446320000000     0.045740000000    -0.0761362  
C69      C      0.290210000000     0.467040000000     0.092950000000    -0.00553258 
C70      C      0.290440000000     0.508070000000     0.093250000000    -0.00567434 
C71      C      0.290740000000     0.529170000000     0.046340000000    -0.0759068  
C72      C      0.290220000000     0.508460000000     0.999130000000    -0.00512143 
C73      C      0.118450000000     0.008900000000     0.825120000000    -0.0065825  
C74      C      0.143000000000     0.029700000000     0.790860000000    -0.0721248  
C75      C      0.169430000000     0.008740000000     0.759360000000    -0.00589645 
C76      C      0.169650000000     0.967730000000     0.759820000000    -0.00596789 
C77      C      0.143430000000     0.946890000000     0.791770000000    -0.0719721  
C78      C      0.118660000000     0.967850000000     0.825560000000    -0.00661904 
C79      C      0.181570000000     0.719250000000     0.874240000000    -0.00349569 
C80      C      0.195380000000     0.755870000000     0.856960000000    -0.0820596  
C81      C      0.232030000000     0.769450000000     0.874690000000    -0.00351729 
C82      C      0.253970000000     0.747320000000     0.910100000000    -0.00718666 
C83      C      0.239660000000     0.711190000000     0.928450000000    -0.0745324  
C84      C      0.203500000000     0.697120000000     0.909650000000    -0.0071494  
C85      C      0.169470000000     0.967050000000     0.332620000000    -0.00599704 
C86      C      0.143190000000     0.945850000000     0.301180000000    -0.0720398  
C87      C      0.118350000000     0.966410000000     0.267050000000    -0.00664315 
C88      C      0.118140000000     0.007460000000     0.266650000000    -0.00664368 
C89      C      0.142770000000     0.028650000000     0.300370000000    -0.072019   
C90      C      0.169260000000     0.008070000000     0.332210000000    -0.00593176 
C91      C      0.254300000000     0.746350000000     0.185620000000    -0.00719785 
C92      C      0.239830000000     0.710440000000     0.166730000000    -0.0746787  
C93      C      0.203550000000     0.696430000000     0.185190000000    -0.00716103 
C94      C      0.181620000000     0.718450000000     0.220720000000    -0.00360022 
C95      C      0.195560000000     0.754890000000     0.238470000000    -0.0819955  
C96      C      0.232370000000     0.768360000000     0.221150000000    -0.00362186 
C97      C      0.106070000000     0.850260000000     0.520370000000    -0.00356382 
C98      C      0.129670000000     0.823700000000     0.492640000000    -0.0775099  
C99      C      0.153510000000     0.797210000000     0.520310000000    -0.00464487 
C100     C      0.153490000000     0.797290000000     0.574870000000    -0.00460342 
C101     C      0.129620000000     0.823860000000     0.602360000000    -0.0776032  
C102     C      0.106050000000     0.850340000000     0.574460000000    -0.00348038 
C103     C      0.481760000000     0.316330000000     0.997770000000    -0.00505646 
C104     C      0.502710000000     0.316030000000     0.044840000000    -0.0760421  
C105     C      0.481740000000     0.315400000000     0.091890000000    -0.00556573 
C106     C      0.440610000000     0.315620000000     0.091870000000    -0.0056805  
C107     C      0.419670000000     0.316470000000     0.044810000000    -0.0757838  
C108     C      0.440630000000     0.316550000000     0.997760000000    -0.00514573 
C109     C      0.940530000000     0.192110000000     0.751990000000    -0.00590164 
C110     C      0.919700000000     0.167670000000     0.786300000000    -0.0721455  
C111     C      0.940740000000     0.145100000000     0.822590000000    -0.00639795 
C112     C      0.981890000000     0.145290000000     0.822580000000    -0.00680446 
C113     C      0.002710000000     0.168070000000     0.786280000000    -0.0717153  
C114     C      0.981640000000     0.192310000000     0.751990000000    -0.00629606 
C115     C      0.691640000000     0.205720000000     0.870760000000    -0.0035265  
C116     C      0.728580000000     0.219040000000     0.853750000000    -0.0820443  
C117     C      0.742670000000     0.255330000000     0.871810000000    -0.00346989 
C118     C      0.720740000000     0.277350000000     0.907340000000    -0.00720246 
C119     C      0.684310000000     0.263490000000     0.925480000000    -0.0745047  
C120     C      0.669710000000     0.227740000000     0.906290000000    -0.00715876 
C121     C      0.940640000000     0.144200000000     0.266060000000    -0.00633844 
C122     C      0.919620000000     0.167000000000     0.302130000000    -0.0723939  
C123     C      0.940480000000     0.191670000000     0.336120000000    -0.00575294 
C124     C      0.981580000000     0.191870000000     0.336080000000    -0.00642275 
C125     C      0.002630000000     0.167380000000     0.302060000000    -0.0715973  
C126     C      0.981800000000     0.144390000000     0.266020000000    -0.00698683 
C127     C      0.670110000000     0.226390000000     0.181760000000    -0.00726321 
C128     C      0.684250000000     0.262690000000     0.163770000000    -0.0745409  
C129     C      0.720230000000     0.276930000000     0.182940000000    -0.00723811 
C130     C      0.742170000000     0.254810000000     0.218360000000    -0.00355696 
C131     C      0.728540000000     0.218020000000     0.235260000000    -0.0821441  
C132     C      0.692050000000     0.204270000000     0.217180000000    -0.00355192 
C133     C      0.818150000000     0.123700000000     0.517680000000    -0.00354607 
C134     C      0.794460000000     0.150080000000     0.489790000000    -0.0774877  
C135     C      0.770490000000     0.176560000000     0.517290000000    -0.00472614 
C136     C      0.770490000000     0.176640000000     0.571850000000    -0.00455903 
C137     C      0.794430000000     0.150240000000     0.599510000000    -0.0775573  
C138     C      0.818130000000     0.123770000000     0.571780000000    -0.00356554 
C139     C      0.442290000000     0.657780000000     0.094230000000    -0.00563316 
C140     C      0.421320000000     0.657880000000     0.047170000000    -0.0753685  
C141     C      0.442270000000     0.658300000000     0.000100000000    -0.00614163 
C142     C      0.483400000000     0.658080000000     0.000090000000    -0.0063486  
C143     C      0.504360000000     0.657430000000     0.047140000000    -0.0749805  
C144     C      0.483410000000     0.657550000000     0.094210000000    -0.00583705 
C145     C      0.634030000000     0.506840000000     0.999100000000    -0.00505513 
C146     C      0.633770000000     0.527580000000     0.046300000000    -0.0761323  
C147     C      0.633840000000     0.506500000000     0.093230000000    -0.00555888 
C148     C      0.633590000000     0.465470000000     0.092960000000    -0.00564917 
C149     C      0.633290000000     0.444730000000     0.045760000000    -0.0759312  
C150     C      0.633800000000     0.465810000000     0.998840000000    -0.00511156 
C151     C      0.942430000000     0.782240000000     0.755770000000    -0.00583874 
C152     C      0.921350000000     0.806730000000     0.789750000000    -0.0722385  
C153     C      0.942170000000     0.829760000000     0.825770000000    -0.006399   
C154     C      0.983330000000     0.829960000000     0.825770000000    -0.00683714 
C155     C      0.004370000000     0.807140000000     0.789750000000    -0.0717175  
C156     C      0.983530000000     0.782440000000     0.755770000000    -0.00628377 
C157     C      0.805620000000     0.966410000000     0.825540000000    -0.00668112 
C158     C      0.781060000000     0.945240000000     0.791710000000    -0.0719166  
C159     C      0.754630000000     0.965850000000     0.759790000000    -0.00600352 
C160     C      0.754440000000     0.006870000000     0.759420000000    -0.00591468 
C161     C      0.780660000000     0.028050000000     0.790960000000    -0.0720634  
C162     C      0.805420000000     0.007460000000     0.825170000000    -0.00658128 
C163     C      0.693530000000     0.767500000000     0.874070000000    -0.00349928 
C164     C      0.730390000000     0.754140000000     0.856800000000    -0.0820955  
C165     C      0.744410000000     0.717720000000     0.874520000000    -0.0034592  
C166     C      0.722480000000     0.695590000000     0.909920000000    -0.00722863 
C167     C      0.686110000000     0.709460000000     0.928280000000    -0.0744512  
C168     C      0.671600000000     0.745380000000     0.909480000000    -0.00720481 
C169     C      0.942410000000     0.781520000000     0.340100000000    -0.00581597 
C170     C      0.921360000000     0.805670000000     0.305670000000    -0.0723234  
C171     C      0.942200000000     0.828340000000     0.269280000000    -0.00635307 
C172     C      0.983360000000     0.828530000000     0.269310000000    -0.0069189  
C173     C      0.004370000000     0.806060000000     0.305730000000    -0.0716123  
C174     C      0.983520000000     0.781710000000     0.340130000000    -0.00640496 
C175     C      0.754750000000     0.965170000000     0.332670000000    -0.00590605 
C176     C      0.781230000000     0.944230000000     0.301220000000    -0.072142   
C177     C      0.805840000000     0.965050000000     0.267070000000    -0.00659683 
C178     C      0.805630000000     0.006110000000     0.266670000000    -0.00671774 
C179     C      0.780790000000     0.027040000000     0.300410000000    -0.0719978  
C180     C      0.754530000000     0.006180000000     0.332270000000    -0.00598395 
C181     C      0.671320000000     0.744410000000     0.185960000000    -0.00717541 
C182     C      0.686020000000     0.708750000000     0.166560000000    -0.0746344  
C183     C      0.722550000000     0.694990000000     0.184480000000    -0.00723449 
C184     C      0.744480000000     0.717020000000     0.220010000000    -0.00357254 
C185     C      0.730280000000     0.753200000000     0.238300000000    -0.0820164  
C186     C      0.693240000000     0.766420000000     0.221510000000    -0.00365867 
C187     C      0.819360000000     0.848870000000     0.520260000000    -0.0035458  
C188     C      0.796120000000     0.822000000000     0.492540000000    -0.0775398  
C189     C      0.772660000000     0.795180000000     0.520210000000    -0.00458058 
C190     C      0.772670000000     0.795260000000     0.574770000000    -0.00471426 
C191     C      0.796170000000     0.822170000000     0.602260000000    -0.0774683  
C192     C      0.819380000000     0.848950000000     0.574360000000    -0.00352884 
H1       H      0.242720000000     0.180020000000     0.856420000000     0.049119   
H2       H      0.150940000000     0.267720000000     0.859890000000     0.0490279  
H3       H      0.189240000000     0.306200000000     0.921960000000     0.0511364  
H4       H      0.281000000000     0.218470000000     0.918510000000     0.0512233  
H5       H      0.241830000000     0.178150000000     0.230320000000     0.049034   
H6       H      0.151550000000     0.267430000000     0.230490000000     0.0489696  
H7       H      0.189880000000     0.306080000000     0.168640000000     0.051045   
H8       H      0.280150000000     0.216790000000     0.168460000000     0.0510811  
H9       H      0.086050000000     0.103940000000     0.497590000000     0.0512603  
H10      H      0.169620000000     0.199530000000     0.496550000000     0.0485721  
H11      H      0.169670000000     0.199670000000     0.592110000000     0.0486057  
H12      H      0.086120000000     0.104070000000     0.591730000000     0.0512919  
H13      H      0.290000000000     0.452260000000     0.961830000000     0.0509358  
H14      H      0.290400000000     0.451560000000     0.129720000000     0.0508805  
H15      H      0.290800000000     0.523240000000     0.130240000000     0.0509378  
H16      H      0.290410000000     0.523940000000     0.962350000000     0.0510025  
H17      H      0.097830000000     0.024280000000     0.849950000000     0.0519557  
H18      H      0.188820000000     0.023960000000     0.732710000000     0.0512677  
H19      H      0.189200000000     0.952380000000     0.733500000000     0.051282   
H20      H      0.098200000000     0.952580000000     0.850730000000     0.0519538  
H21      H      0.153440000000     0.708000000000     0.861190000000     0.0490593  
H22      H      0.243460000000     0.797540000000     0.861990000000     0.049052   
H23      H      0.281770000000     0.758890000000     0.923850000000     0.0511565  
H24      H      0.191740000000     0.669350000000     0.923050000000     0.0512048  
H25      H      0.189070000000     0.952010000000     0.359180000000     0.0512557  
H26      H      0.097840000000     0.950840000000     0.242270000000     0.0518816  
H27      H      0.097470000000     0.022540000000     0.241570000000     0.0518618  
H28      H      0.188700000000     0.023600000000     0.358480000000     0.0512695  
H29      H      0.282200000000     0.757860000000     0.172140000000     0.0510463  
H30      H      0.191680000000     0.668820000000     0.171390000000     0.0510556  
H31      H      0.153380000000     0.707280000000     0.233460000000     0.0490014  
H32      H      0.243890000000     0.796320000000     0.234220000000     0.049022   
H33      H      0.087390000000     0.871090000000     0.500280000000     0.0512923  
H34      H      0.171990000000     0.776410000000     0.499880000000     0.0485952  
H35      H      0.171960000000     0.776560000000     0.595430000000     0.0485818  
H36      H      0.087350000000     0.871230000000     0.594410000000     0.051279   
H37      H      0.497130000000     0.316800000000     0.960900000000     0.0509732  
H38      H      0.497090000000     0.315130000000     0.128780000000     0.050894   
H39      H      0.425240000000     0.315510000000     0.128750000000     0.0509574  
H40      H      0.425280000000     0.317180000000     0.960870000000     0.0510278  
H41      H      0.925110000000     0.209940000000     0.723700000000     0.0511766  
H42      H      0.925470000000     0.126040000000     0.849590000000     0.0519967  
H43      H      0.997350000000     0.126380000000     0.849580000000     0.0520586  
H44      H      0.996870000000     0.210280000000     0.723680000000     0.0512085  
H45      H      0.679990000000     0.177880000000     0.857440000000     0.0490694  
H46      H      0.771030000000     0.266380000000     0.859320000000     0.0490218  
H47      H      0.732720000000     0.304840000000     0.921380000000     0.0511742  
H48      H      0.641690000000     0.216340000000     0.919520000000     0.0511724  
H49      H      0.925350000000     0.124960000000     0.239310000000     0.0518189  
H50      H      0.925090000000     0.209690000000     0.364230000000     0.051168   
H51      H      0.996830000000     0.210020000000     0.364170000000     0.0512854  
H52      H      0.997240000000     0.125300000000     0.239250000000     0.0519433  
H53      H      0.642450000000     0.214680000000     0.167720000000     0.0510355  
H54      H      0.731850000000     0.304830000000     0.169830000000     0.0510939  
H55      H      0.770160000000     0.266190000000     0.231690000000     0.0489866  
H56      H      0.680780000000     0.176040000000     0.229590000000     0.0489807  
H57      H      0.836920000000     0.102880000000     0.497720000000     0.0512661  
H58      H      0.751940000000     0.197210000000     0.496730000000     0.0486066  
H59      H      0.751920000000     0.197370000000     0.592290000000     0.0485622  
H60      H      0.836890000000     0.103020000000     0.591860000000     0.0512672  
H61      H      0.426930000000     0.657470000000     0.131120000000     0.0509269  
H62      H      0.426900000000     0.658400000000     0.963220000000     0.0514494  
H63      H      0.498750000000     0.658020000000     0.963200000000     0.051541   
H64      H      0.498780000000     0.657090000000     0.131090000000     0.0510126  
H65      H      0.634000000000     0.522310000000     0.962320000000     0.050949   
H66      H      0.633650000000     0.521690000000     0.130210000000     0.0508712  
H67      H      0.633240000000     0.450000000000     0.129740000000     0.0509442  
H68      H      0.633600000000     0.450630000000     0.961850000000     0.0509825  
H69      H      0.927200000000     0.764050000000     0.727700000000     0.0511879  
H70      H      0.926710000000     0.848870000000     0.852510000000     0.0519408  
H71      H      0.998600000000     0.849220000000     0.852510000000     0.0519977  
H72      H      0.998940000000     0.764400000000     0.727700000000     0.0512773  
H73      H      0.826220000000     0.951310000000     0.850680000000     0.0519467  
H74      H      0.735240000000     0.950340000000     0.733440000000     0.0513152  
H75      H      0.734900000000     0.021920000000     0.732790000000     0.0512535  
H76      H      0.825880000000     0.023010000000     0.850040000000     0.0519279  
H77      H      0.681950000000     0.795440000000     0.861020000000     0.0490895  
H78      H      0.772710000000     0.706650000000     0.861830000000     0.0489912  
H79      H      0.734390000000     0.667990000000     0.923680000000     0.0511598  
H80      H      0.643630000000     0.756790000000     0.922880000000     0.0512183  
H81      H      0.927160000000     0.763620000000     0.368480000000     0.0511219  
H82      H      0.926760000000     0.847180000000     0.242180000000     0.0518827  
H83      H      0.998640000000     0.847510000000     0.242230000000     0.0519849  
H84      H      0.998920000000     0.763960000000     0.368530000000     0.0512382  
H85      H      0.735310000000     0.949920000000     0.359240000000     0.0512513  
H86      H      0.826500000000     0.949700000000     0.242270000000     0.0518316  
H87      H      0.826120000000     0.021400000000     0.241580000000     0.0518718  
H88      H      0.734930000000     0.021510000000     0.358550000000     0.0512485  
H89      H      0.643220000000     0.755730000000     0.172920000000     0.0510942  
H90      H      0.734600000000     0.667590000000     0.170260000000     0.0510058  
H91      H      0.772910000000     0.706060000000     0.232330000000     0.048935   
H92      H      0.681520000000     0.794170000000     0.235000000000     0.0490695  
H93      H      0.837750000000     0.869960000000     0.500180000000     0.0512604  
H94      H      0.754450000000     0.774140000000     0.499780000000     0.0485739  
H95      H      0.754480000000     0.774290000000     0.595340000000     0.0486134  
H96      H      0.837790000000     0.870100000000     0.594310000000     0.0512652  
In1      In     0.801730000000     0.825550000000     0.330250000000     2.39059    
In2      In     0.801750000000     0.826370000000     0.764530000000     2.39068    
In3      In     0.627100000000     0.650080000000     0.047080000000     2.40513    
In4      In     0.800250000000     0.146130000000     0.327520000000     2.39081    
In5      In     0.800210000000     0.146870000000     0.761810000000     2.39083    
In6      In     0.625510000000     0.322310000000     0.044950000000     2.40521    
In7      In     0.123830000000     0.827000000000     0.330350000000     2.39056    
In8      In     0.123800000000     0.827840000000     0.764630000000     2.39097    
In9      In     0.298520000000     0.651590000000     0.047200000000     2.40549    
In10     In     0.122190000000     0.147570000000     0.327360000000     2.391      
In11     In     0.122360000000     0.148330000000     0.761650000000     2.39066    
In12     In     0.296930000000     0.323830000000     0.044820000000     2.4052     
O1       O      0.859170000000     0.793400000000     0.346950000000    -0.480565   
O2       O      0.858470000000     0.833660000000     0.283880000000    -0.465509   
O3       O      0.744000000000     0.811200000000     0.288360000000    -0.493565   
O4       O      0.777310000000     0.799660000000     0.406670000000    -0.481872   
O5       O      0.811350000000     0.881730000000     0.283430000000    -0.465873   
O6       O      0.818700000000     0.846210000000     0.410620000000    -0.492717   
O7       O      0.788930000000     0.768310000000     0.286590000000    -0.494026   
O8       O      0.767650000000     0.882440000000     0.342460000000    -0.479058   
O9       O      0.767520000000     0.883050000000     0.751520000000    -0.479195   
O10      O      0.811260000000     0.882950000000     0.810530000000    -0.465764   
O11      O      0.744280000000     0.812350000000     0.807250000000    -0.493609   
O12      O      0.777170000000     0.800320000000     0.688280000000    -0.481797   
O13      O      0.858390000000     0.834790000000     0.811080000000    -0.465475   
O14      O      0.818980000000     0.846480000000     0.684010000000    -0.492607   
O15      O      0.788800000000     0.769030000000     0.807870000000    -0.49398    
O16      O      0.859250000000     0.794200000000     0.748390000000    -0.480683   
O17      O      0.677010000000     0.655700000000     0.106030000000    -0.483366   
O18      O      0.632480000000     0.699390000000     0.106720000000    -0.483466   
O19      O      0.676980000000     0.656000000000     0.988140000000    -0.482886   
O20      O      0.631210000000     0.591040000000     0.005450000000    -0.484355   
O21      O      0.567800000000     0.654210000000     0.088370000000    -0.483346   
O22      O      0.631280000000     0.590740000000     0.087960000000    -0.484074   
O23      O      0.632600000000     0.699840000000     0.988100000000    -0.482997   
O24      O      0.567800000000     0.654680000000     0.005840000000    -0.483375   
O25      O      0.766500000000     0.089140000000     0.340410000000    -0.479348   
O26      O      0.810450000000     0.089610000000     0.281680000000    -0.465865   
O27      O      0.786670000000     0.203670000000     0.285020000000    -0.49405    
O28      O      0.775070000000     0.171590000000     0.403770000000    -0.481931   
O29      O      0.856900000000     0.138410000000     0.280770000000    -0.46553    
O30      O      0.817810000000     0.126290000000     0.408030000000    -0.492658   
O31      O      0.742970000000     0.159530000000     0.283970000000    -0.493516   
O32      O      0.857470000000     0.178770000000     0.343720000000    -0.48061    
O33      O      0.857390000000     0.179450000000     0.745060000000    -0.480439   
O34      O      0.857050000000     0.139140000000     0.808080000000    -0.46541    
O35      O      0.742520000000     0.160930000000     0.804010000000    -0.493504   
O36      O      0.775320000000     0.172320000000     0.685390000000    -0.481875   
O37      O      0.810220000000     0.090820000000     0.808740000000    -0.46584    
O38      O      0.817440000000     0.126430000000     0.681430000000    -0.492643   
O39      O      0.787130000000     0.204160000000     0.805140000000    -0.494213   
O40      O      0.766570000000     0.089710000000     0.749650000000    -0.479191   
O41      O      0.631010000000     0.272230000000     0.103500000000    -0.483207   
O42      O      0.675070000000     0.316400000000     0.104330000000    -0.483247   
O43      O      0.630760000000     0.272970000000     0.985290000000    -0.482903   
O44      O      0.566180000000     0.318800000000     0.003640000000    -0.484131   
O45      O      0.629940000000     0.381310000000     0.086600000000    -0.483749   
O46      O      0.566180000000     0.318010000000     0.086150000000    -0.483868   
O47      O      0.675400000000     0.316540000000     0.986020000000    -0.483098   
O48      O      0.630320000000     0.381600000000     0.004080000000    -0.48386    
O49      O      0.157440000000     0.884190000000     0.342410000000    -0.479149   
O50      O      0.113640000000     0.883060000000     0.283520000000    -0.465972   
O51      O      0.181460000000     0.813100000000     0.287930000000    -0.493461   
O52      O      0.148750000000     0.801590000000     0.406770000000    -0.481953   
O53      O      0.067040000000     0.834520000000     0.283890000000    -0.465298   
O54      O      0.106630000000     0.847480000000     0.410720000000    -0.492637   
O55      O      0.137080000000     0.769620000000     0.287300000000    -0.494116   
O56      O      0.066630000000     0.794450000000     0.347180000000    -0.480169   
O57      O      0.066580000000     0.795240000000     0.748350000000    -0.480503   
O58      O      0.067080000000     0.835720000000     0.811170000000    -0.465439   
O59      O      0.181160000000     0.814250000000     0.807900000000    -0.493387   
O60      O      0.148880000000     0.802250000000     0.688390000000    -0.481746   
O61      O      0.113740000000     0.884350000000     0.810560000000    -0.465837   
O62      O      0.106360000000     0.847750000000     0.684100000000    -0.492706   
O63      O      0.137160000000     0.770400000000     0.807480000000    -0.494102   
O64      O      0.157620000000     0.884780000000     0.751740000000    -0.479447   
O65      O      0.293220000000     0.701070000000     0.106650000000    -0.483454   
O66      O      0.248810000000     0.657260000000     0.106410000000    -0.48341    
O67      O      0.293080000000     0.701520000000     0.988420000000    -0.482778   
O68      O      0.357830000000     0.655730000000     0.005930000000    -0.484061   
O69      O      0.293890000000     0.592290000000     0.088050000000    -0.483721   
O70      O      0.357870000000     0.655260000000     0.088440000000    -0.483901   
O71      O      0.248760000000     0.657620000000     0.988120000000    -0.482852   
O72      O      0.293900000000     0.592620000000     0.005530000000    -0.484005   
O73      O      0.064730000000     0.179810000000     0.343480000000    -0.480639   
O74      O      0.065580000000     0.139280000000     0.280720000000    -0.465566   
O75      O      0.179580000000     0.161400000000     0.284340000000    -0.493531   
O76      O      0.146880000000     0.173530000000     0.403600000000    -0.481845   
O77      O      0.112540000000     0.090940000000     0.281550000000    -0.465978   
O78      O      0.104900000000     0.127540000000     0.407890000000    -0.492806   
O79      O      0.135310000000     0.204980000000     0.284250000000    -0.493975   
O80      O      0.156410000000     0.090890000000     0.340380000000    -0.47928    
O81      O      0.156430000000     0.091440000000     0.749400000000    -0.479095   
O82      O      0.112910000000     0.092210000000     0.808650000000    -0.465946   
O83      O      0.135040000000     0.205530000000     0.805460000000    -0.493862   
O84      O      0.146730000000     0.174240000000     0.685210000000    -0.481809   
O85      O      0.065610000000     0.140070000000     0.807950000000    -0.465329   
O86      O      0.105350000000     0.127680000000     0.681290000000    -0.492705   
O87      O      0.180150000000     0.162840000000     0.803300000000    -0.493582   
O88      O      0.064900000000     0.180480000000     0.745050000000    -0.480362   
O89      O      0.247150000000     0.317950000000     0.103920000000    -0.48324    
O90      O      0.291340000000     0.273910000000     0.103560000000    -0.483169   
O91      O      0.246930000000     0.318160000000     0.986020000000    -0.483037   
O92      O      0.292600000000     0.383180000000     0.004010000000    -0.484381   
O93      O      0.356200000000     0.319050000000     0.086080000000    -0.483278   
O94      O      0.292960000000     0.382850000000     0.086520000000    -0.484193   
O95      O      0.291640000000     0.274660000000     0.984950000000    -0.482939   
O96      O      0.356250000000     0.319860000000     0.003560000000    -0.48374    


