data_structure

_audit_creation_method RASPA-1.0
_audit_creation_date 2023-5-22
_audit_author_name 'Poobodin Mano'

_cell_length_a    34.3759
_cell_length_b    34.4072
_cell_length_c    33.9777
_cell_angle_alpha 90.0077
_cell_angle_beta  90.4417
_cell_angle_gamma 120.087
_cell_volume      34772

_symmetry_cell_setting          triclinic
_symmetry_space_group_name_Hall 'P 1'
_symmetry_space_group_name_H-M  'P 1'
_symmetry_Int_Tables_number     1

_symmetry_equiv_pos_as_xyz 'x,y,z'

loop_
_atom_site_label
_atom_site_type_symbol
_atom_site_fract_x
_atom_site_fract_y
_atom_site_fract_z
_atom_site_charge
C1       C      0.490960000000     0.312630000000     0.148560000000     0.349784   
C2       C      0.489340000000     0.430680000000     0.209820000000     0.348799   
C3       C      0.607170000000     0.428410000000     0.149470000000     0.349663   
C4       C      0.489110000000     0.431170000000     0.089000000000     0.348114   
C5       C      0.308430000000     0.496470000000     0.399890000000     0.349847   
C6       C      0.426510000000     0.494110000000     0.338420000000     0.348422   
C7       C      0.424310000000     0.612380000000     0.396390000000     0.349614   
C8       C      0.426450000000     0.494490000000     0.459260000000     0.348536   
C9       C      0.773660000000     0.312380000000     0.146340000000     0.349947   
C10      C      0.894400000000     0.430450000000     0.087870000000     0.348836   
C11      C      0.774040000000     0.428280000000     0.148630000000     0.349682   
C12      C      0.894190000000     0.430200000000     0.208680000000     0.348054   
C13      C      0.141080000000     0.495660000000     0.400500000000     0.349488   
C14      C      0.020960000000     0.493490000000     0.459860000000     0.349183   
C15      C      0.140950000000     0.611300000000     0.398130000000     0.349826   
C16      C      0.020200000000     0.492960000000     0.339040000000     0.348388   
C17      C      0.606240000000     0.145640000000     0.144960000000     0.349533   
C18      C      0.488010000000     0.024790000000     0.204890000000     0.348228   
C19      C      0.490330000000     0.145520000000     0.146350000000     0.349609   
C20      C      0.488440000000     0.025700000000     0.084070000000     0.348605   
C21      C      0.423970000000     0.779010000000     0.394150000000     0.349645   
C22      C      0.425390000000     0.898460000000     0.333470000000     0.34881    
C23      C      0.307840000000     0.778470000000     0.395290000000     0.349549   
C24      C      0.425990000000     0.899660000000     0.454290000000     0.348035   
C25      C      0.428640000000     0.976110000000     0.252950000000    -0.00566474 
C26      C      0.471920000000     0.992340000000     0.237660000000    -0.0746021  
C27      C      0.499710000000     0.977350000000     0.254020000000    -0.00559768 
C28      C      0.484560000000     0.946770000000     0.285110000000    -0.00547757 
C29      C      0.441310000000     0.930590000000     0.300450000000    -0.0749376  
C30      C      0.413480000000     0.945520000000     0.284050000000    -0.00545644 
C31      C      0.429620000000     0.978120000000     0.034240000000    -0.00546139 
C32      C      0.472530000000     0.993620000000     0.050770000000    -0.0748442  
C33      C      0.500070000000     0.978110000000     0.035250000000    -0.00536931 
C34      C      0.484970000000     0.947620000000     0.503840000000    -0.00565848 
C35      C      0.442040000000     0.932060000000     0.487350000000    -0.0743981  
C36      C      0.414520000000     0.947630000000     0.502830000000    -0.00560741 
C37      C      0.200210000000     0.680080000000     0.432630000000    -0.00558801 
C38      C      0.179440000000     0.657710000000     0.397370000000    -0.0755888  
C39      C      0.198610000000     0.678210000000     0.361370000000    -0.00557041 
C40      C      0.239250000000     0.718930000000     0.360670000000    -0.00576398 
C41      C      0.261470000000     0.739870000000     0.395960000000    -0.075425   
C42      C      0.240870000000     0.720790000000     0.431940000000    -0.0057414  
C43      C      0.714200000000     0.245450000000     0.109940000000    -0.00553138 
C44      C      0.735010000000     0.266050000000     0.145760000000    -0.0757073  
C45      C      0.715730000000     0.243870000000     0.181170000000    -0.00556989 
C46      C      0.674940000000     0.203260000000     0.180840000000    -0.0057453  
C47      C      0.652700000000     0.184100000000     0.145090000000    -0.0754017  
C48      C      0.673410000000     0.204840000000     0.109600000000    -0.00579378 
C49      C      0.941750000000     0.418660000000     0.258130000000    -0.00560911 
C50      C      0.926370000000     0.446200000000     0.242050000000    -0.074465   
C51      C      0.942010000000     0.489180000000     0.258150000000    -0.00554149 
C52      C      0.972460000000     0.504350000000     0.289710000000    -0.00553604 
C53      C      0.987880000000     0.476830000000     0.305770000000    -0.0745723  
C54      C      0.972220000000     0.433840000000     0.289690000000    -0.0054871  
C55      C      0.973230000000     0.504920000000     0.508470000000    -0.00542089 
C56      C      0.988700000000     0.477420000000     0.492670000000    -0.0752093  
C57      C      0.972950000000     0.434390000000     0.508440000000    -0.00538891 
C58      C      0.942310000000     0.419120000000     0.039390000000    -0.00557704 
C59      C      0.926810000000     0.446600000000     0.055160000000    -0.0748264  
C60      C      0.942570000000     0.489650000000     0.039410000000    -0.00559833 
C61      C      0.431300000000     0.678500000000     0.359590000000    -0.00579122 
C62      C      0.432120000000     0.658710000000     0.395530000000    -0.075431   
C63      C      0.435720000000     0.681660000000     0.430790000000    -0.00575569 
C64      C      0.435630000000     0.722250000000     0.430240000000    -0.00563468 
C65      C      0.431950000000     0.740610000000     0.394420000000    -0.0755717  
C66      C      0.431230000000     0.719090000000     0.359050000000    -0.00563411 
C67      C      0.201310000000     0.489010000000     0.436270000000    -0.00575212 
C68      C      0.179700000000     0.487990000000     0.400690000000    -0.0754758  
C69      C      0.198170000000     0.484320000000     0.365090000000    -0.00570081 
C70      C      0.238950000000     0.484530000000     0.364940000000    -0.00564543 
C71      C      0.261980000000     0.488420000000     0.400380000000    -0.0755742  
C72      C      0.242080000000     0.489240000000     0.436110000000    -0.00562302 
C73      C      0.674890000000     0.438420000000     0.113700000000    -0.00563282 
C74      C      0.653540000000     0.436240000000     0.149410000000    -0.0755899  
C75      C      0.675010000000     0.436890000000     0.184960000000    -0.00568587 
C76      C      0.715660000000     0.436860000000     0.184750000000    -0.00570406 
C77      C      0.735570000000     0.436190000000     0.148980000000    -0.0754927  
C78      C      0.715550000000     0.438400000000     0.113490000000    -0.00572328 
C79      C      0.480610000000     0.244850000000     0.112180000000    -0.00565278 
C80      C      0.482910000000     0.266220000000     0.148080000000    -0.0756627  
C81      C      0.482170000000     0.244710000000     0.183440000000    -0.00561433 
C82      C      0.482010000000     0.204000000000     0.182900000000    -0.00573591 
C83      C      0.482580000000     0.184060000000     0.146980000000    -0.075539   
C84      C      0.480440000000     0.204130000000     0.111640000000    -0.00568441 
C85      C      0.430140000000     0.419920000000     0.039400000000    -0.00564975 
C86      C      0.473060000000     0.447430000000     0.055890000000    -0.0744308  
C87      C      0.500520000000     0.490570000000     0.040420000000    -0.00563037 
C88      C      0.485360000000     0.505900000000     0.509020000000    -0.00555261 
C89      C      0.442460000000     0.478360000000     0.492500000000    -0.0746893  
C90      C      0.414990000000     0.435230000000     0.508000000000    -0.00550163 
C91      C      0.430060000000     0.419650000000     0.258110000000    -0.00551468 
C92      C      0.473310000000     0.446840000000     0.242790000000    -0.0748525  
C93      C      0.501070000000     0.489670000000     0.259180000000    -0.00552759 
C94      C      0.485860000000     0.505020000000     0.290290000000    -0.00557841 
C95      C      0.442600000000     0.477850000000     0.305580000000    -0.0746921  
C96      C      0.414850000000     0.435010000000     0.289200000000    -0.00558723 
C97      C      0.490960000000     0.312630000000     0.648560000000     0.34949    
C98      C      0.489340000000     0.430680000000     0.709820000000     0.34899    
C99      C      0.607160000000     0.428410000000     0.649470000000     0.349716   
C100     C      0.489110000000     0.431170000000     0.589000000000     0.348125   
C101     C      0.308430000000     0.496470000000     0.899890000000     0.34952    
C102     C      0.426510000000     0.494110000000     0.838420000000     0.348401   
C103     C      0.424310000000     0.612380000000     0.896390000000     0.349624   
C104     C      0.426450000000     0.494490000000     0.959260000000     0.348556   
C105     C      0.773660000000     0.312380000000     0.646340000000     0.349679   
C106     C      0.894400000000     0.430450000000     0.587870000000     0.349121   
C107     C      0.774040000000     0.428280000000     0.648630000000     0.349756   
C108     C      0.894190000000     0.430190000000     0.708680000000     0.348237   
C109     C      0.141080000000     0.495660000000     0.900500000000     0.350141   
C110     C      0.020960000000     0.493490000000     0.959850000000     0.348901   
C111     C      0.140950000000     0.611300000000     0.898130000000     0.349518   
C112     C      0.020200000000     0.492960000000     0.839030000000     0.348336   
C113     C      0.606240000000     0.145640000000     0.644960000000     0.349778   
C114     C      0.488010000000     0.024790000000     0.704890000000     0.348226   
C115     C      0.490330000000     0.145520000000     0.646350000000     0.349624   
C116     C      0.488440000000     0.025700000000     0.584070000000     0.348347   
C117     C      0.423970000000     0.779010000000     0.894150000000     0.349643   
C118     C      0.425390000000     0.898460000000     0.833470000000     0.3488     
C119     C      0.307850000000     0.778470000000     0.895290000000     0.349639   
C120     C      0.425990000000     0.899660000000     0.954290000000     0.347988   
C121     C      0.428640000000     0.976110000000     0.752950000000    -0.00566335 
C122     C      0.471920000000     0.992340000000     0.737660000000    -0.0746037  
C123     C      0.499710000000     0.977350000000     0.754020000000    -0.00559963 
C124     C      0.484560000000     0.946770000000     0.785110000000    -0.00547707 
C125     C      0.441310000000     0.930590000000     0.800450000000    -0.0749418  
C126     C      0.413480000000     0.945520000000     0.784050000000    -0.00545831 
C127     C      0.429620000000     0.978120000000     0.534240000000    -0.00551599 
C128     C      0.472530000000     0.993620000000     0.550770000000    -0.0747274  
C129     C      0.500070000000     0.978110000000     0.535250000000    -0.00542179 
C130     C      0.484970000000     0.947620000000     0.003840000000    -0.00569478 
C131     C      0.442040000000     0.932070000000     0.987360000000    -0.0743178  
C132     C      0.414520000000     0.947630000000     0.002830000000    -0.00563079 
C133     C      0.200210000000     0.680080000000     0.932640000000    -0.00574781 
C134     C      0.179440000000     0.657710000000     0.897370000000    -0.0754141  
C135     C      0.198610000000     0.678200000000     0.861370000000    -0.00565988 
C136     C      0.239260000000     0.718930000000     0.860670000000    -0.00571325 
C137     C      0.261470000000     0.739880000000     0.895960000000    -0.0754674  
C138     C      0.240870000000     0.720790000000     0.931940000000    -0.00563305 
C139     C      0.714190000000     0.245450000000     0.609940000000    -0.00560046 
C140     C      0.735010000000     0.266050000000     0.645760000000    -0.0755801  
C141     C      0.715730000000     0.243870000000     0.681170000000    -0.00563913 
C142     C      0.674940000000     0.203260000000     0.680840000000    -0.00568729 
C143     C      0.652710000000     0.184100000000     0.645090000000    -0.0754904  
C144     C      0.673410000000     0.204840000000     0.609600000000    -0.00573342 
C145     C      0.941750000000     0.418660000000     0.758130000000    -0.00559138 
C146     C      0.926370000000     0.446200000000     0.742050000000    -0.0745315  
C147     C      0.942010000000     0.489180000000     0.758150000000    -0.00550804 
C148     C      0.972460000000     0.504350000000     0.789710000000    -0.00553454 
C149     C      0.987880000000     0.476830000000     0.805770000000    -0.0746134  
C150     C      0.972220000000     0.433840000000     0.789690000000    -0.0054864  
C151     C      0.973230000000     0.504920000000     0.008470000000    -0.0054545  
C152     C      0.988700000000     0.477420000000     0.992670000000    -0.0750499  
C153     C      0.972950000000     0.434380000000     0.008440000000    -0.00546077 
C154     C      0.942310000000     0.419120000000     0.539390000000    -0.00557448 
C155     C      0.926810000000     0.446600000000     0.555160000000    -0.0749185  
C156     C      0.942570000000     0.489650000000     0.539410000000    -0.00557922 
C157     C      0.431300000000     0.678500000000     0.859600000000    -0.00572039 
C158     C      0.432120000000     0.658710000000     0.895530000000    -0.0754689  
C159     C      0.435720000000     0.681660000000     0.930790000000    -0.00573811 
C160     C      0.435630000000     0.722250000000     0.930240000000    -0.00565274 
C161     C      0.431950000000     0.740610000000     0.894420000000    -0.0755479  
C162     C      0.431230000000     0.719090000000     0.859050000000    -0.00567734 
C163     C      0.201310000000     0.489010000000     0.936270000000    -0.00558903 
C164     C      0.179700000000     0.487990000000     0.900690000000    -0.0757641  
C165     C      0.198180000000     0.484320000000     0.865090000000    -0.00555292 
C166     C      0.238950000000     0.484530000000     0.864940000000    -0.00573908 
C167     C      0.261980000000     0.488430000000     0.900380000000    -0.0753848  
C168     C      0.242090000000     0.489240000000     0.936110000000    -0.00576471 
C169     C      0.674890000000     0.438420000000     0.613700000000    -0.00570244 
C170     C      0.653540000000     0.436240000000     0.649410000000    -0.0754915  
C171     C      0.675010000000     0.436890000000     0.684960000000    -0.00573594 
C172     C      0.715660000000     0.436860000000     0.684750000000    -0.00564396 
C173     C      0.735580000000     0.436190000000     0.648980000000    -0.0756023  
C174     C      0.715540000000     0.438400000000     0.613490000000    -0.00565408 
C175     C      0.480620000000     0.244850000000     0.612180000000    -0.00571401 
C176     C      0.482910000000     0.266220000000     0.648080000000    -0.0755325  
C177     C      0.482160000000     0.244710000000     0.683440000000    -0.00568465 
C178     C      0.482010000000     0.204000000000     0.682900000000    -0.00570329 
C179     C      0.482580000000     0.184060000000     0.646980000000    -0.0755582  
C180     C      0.480440000000     0.204130000000     0.611640000000    -0.00565207 
C181     C      0.430140000000     0.419920000000     0.539400000000    -0.00560596 
C182     C      0.473060000000     0.447430000000     0.555890000000    -0.0744589  
C183     C      0.500520000000     0.490570000000     0.540420000000    -0.005588   
C184     C      0.485360000000     0.505900000000     0.009020000000    -0.00549194 
C185     C      0.442460000000     0.478360000000     0.992500000000    -0.0747563  
C186     C      0.414990000000     0.435240000000     0.008000000000    -0.0054221  
C187     C      0.430070000000     0.419650000000     0.758110000000    -0.00542374 
C188     C      0.473310000000     0.446840000000     0.742790000000    -0.0749565  
C189     C      0.501070000000     0.489670000000     0.759180000000    -0.00546052 
C190     C      0.485870000000     0.505020000000     0.790290000000    -0.00564422 
C191     C      0.442600000000     0.477850000000     0.805580000000    -0.0746392  
C192     C      0.414850000000     0.435010000000     0.789200000000    -0.00566458 
H1       H      0.406460000000     0.987050000000     0.240930000000     0.051258   
H2       H      0.533230000000     0.989270000000     0.242830000000     0.0514256  
H3       H      0.506760000000     0.935860000000     0.297160000000     0.0511865  
H4       H      0.379980000000     0.933630000000     0.295270000000     0.0513014  
H5       H      0.407650000000     0.989500000000     0.045590000000     0.0513142  
H6       H      0.533320000000     0.989480000000     0.047380000000     0.051284   
H7       H      0.506930000000     0.936210000000     0.492520000000     0.0514548  
H8       H      0.381260000000     0.936230000000     0.490720000000     0.0513844  
H9       H      0.186140000000     0.665160000000     0.460830000000     0.0509921  
H10      H      0.183280000000     0.661830000000     0.333700000000     0.0510251  
H11      H      0.254240000000     0.732930000000     0.332490000000     0.051053   
H12      H      0.257130000000     0.736250000000     0.459610000000     0.0510508  
H13      H      0.728350000000     0.261680000000     0.082170000000     0.0509145  
H14      H      0.731090000000     0.258860000000     0.209240000000     0.0510629  
H15      H      0.659870000000     0.187950000000     0.208660000000     0.0511079  
H16      H      0.657150000000     0.190780000000     0.081590000000     0.0510234  
H17      H      0.930270000000     0.385360000000     0.246330000000     0.0514394  
H18      H      0.930730000000     0.511160000000     0.246370000000     0.0513494  
H19      H      0.983950000000     0.537660000000     0.301490000000     0.0513914  
H20      H      0.983520000000     0.411880000000     0.301470000000     0.051389   
H21      H      0.984770000000     0.538250000000     0.496900000000     0.0512572  
H22      H      0.984270000000     0.412440000000     0.496860000000     0.0511176  
H23      H      0.930760000000     0.385780000000     0.050940000000     0.0512366  
H24      H      0.931230000000     0.511580000000     0.050980000000     0.0513184  
H25      H      0.428680000000     0.661670000000     0.331930000000     0.0509188  
H26      H      0.436560000000     0.667300000000     0.458930000000     0.0510926  
H27      H      0.436400000000     0.738150000000     0.457980000000     0.0510593  
H28      H      0.428540000000     0.732520000000     0.330970000000     0.0508789  
H29      H      0.187800000000     0.491700000000     0.464180000000     0.0509319  
H30      H      0.182200000000     0.483330000000     0.337210000000     0.0511102  
H31      H      0.253380000000     0.483700000000     0.336950000000     0.0510897  
H32      H      0.258970000000     0.492070000000     0.463910000000     0.0509298  
H33      H      0.659210000000     0.438110000000     0.085830000000     0.0510169  
H34      H      0.659450000000     0.435370000000     0.212940000000     0.0509872  
H35      H      0.730400000000     0.435320000000     0.212580000000     0.0510104  
H36      H      0.730190000000     0.438070000000     0.085470000000     0.0510124  
H37      H      0.480990000000     0.260540000000     0.084440000000     0.0510214  
H38      H      0.483760000000     0.260300000000     0.211570000000     0.05092    
H39      H      0.483490000000     0.189230000000     0.210620000000     0.0509418  
H40      H      0.480700000000     0.189470000000     0.083490000000     0.0510228  
H41      H      0.408220000000     0.386500000000     0.050710000000     0.0514196  
H42      H      0.533760000000     0.512530000000     0.052540000000     0.0513787  
H43      H      0.507280000000     0.539300000000     0.497690000000     0.0513799  
H44      H      0.381760000000     0.413260000000     0.495870000000     0.0512861  
H45      H      0.407910000000     0.386490000000     0.246060000000     0.0512454  
H46      H      0.534570000000     0.511380000000     0.247980000000     0.0512757  
H47      H      0.508010000000     0.538190000000     0.302320000000     0.0511906  
H48      H      0.381340000000     0.413310000000     0.300390000000     0.0514208  
H49      H      0.406460000000     0.987050000000     0.740930000000     0.0512561  
H50      H      0.533230000000     0.989270000000     0.742830000000     0.0514245  
H51      H      0.506760000000     0.935860000000     0.797160000000     0.0511834  
H52      H      0.379980000000     0.933630000000     0.795270000000     0.0513001  
H53      H      0.407650000000     0.989500000000     0.545590000000     0.051332   
H54      H      0.533320000000     0.989470000000     0.547380000000     0.0512928  
H55      H      0.506930000000     0.936210000000     0.992520000000     0.0514552  
H56      H      0.381260000000     0.936230000000     0.990720000000     0.0513798  
H57      H      0.186140000000     0.665170000000     0.960830000000     0.0510369  
H58      H      0.183280000000     0.661830000000     0.833700000000     0.0510502  
H59      H      0.254250000000     0.732930000000     0.832490000000     0.0510448  
H60      H      0.257130000000     0.736250000000     0.959620000000     0.051018   
H61      H      0.728350000000     0.261680000000     0.582170000000     0.0509334  
H62      H      0.731090000000     0.258860000000     0.709240000000     0.0510846  
H63      H      0.659870000000     0.187950000000     0.708660000000     0.0510878  
H64      H      0.657150000000     0.190780000000     0.581590000000     0.0510027  
H65      H      0.930270000000     0.385360000000     0.746330000000     0.0514292  
H66      H      0.930730000000     0.511160000000     0.746370000000     0.0513424  
H67      H      0.983950000000     0.537660000000     0.801490000000     0.051388   
H68      H      0.983520000000     0.411880000000     0.801460000000     0.0513848  
H69      H      0.984770000000     0.538250000000     0.996900000000     0.051263   
H70      H      0.984280000000     0.412440000000     0.996870000000     0.051132   
H71      H      0.930760000000     0.385780000000     0.550940000000     0.0512304  
H72      H      0.931230000000     0.511580000000     0.550980000000     0.0513093  
H73      H      0.428680000000     0.661670000000     0.831930000000     0.0508937  
H74      H      0.436560000000     0.667300000000     0.958930000000     0.0510853  
H75      H      0.436400000000     0.738150000000     0.957980000000     0.0510626  
H76      H      0.428540000000     0.732520000000     0.830970000000     0.0508896  
H77      H      0.187800000000     0.491700000000     0.964180000000     0.0508858  
H78      H      0.182200000000     0.483330000000     0.837210000000     0.0510644  
H79      H      0.253380000000     0.483690000000     0.836940000000     0.051108   
H80      H      0.258970000000     0.492080000000     0.963910000000     0.0509643  
H81      H      0.659220000000     0.438110000000     0.585830000000     0.0510345  
H82      H      0.659440000000     0.435370000000     0.712940000000     0.0510041  
H83      H      0.730400000000     0.435320000000     0.712580000000     0.050997   
H84      H      0.730190000000     0.438070000000     0.585470000000     0.0509951  
H85      H      0.480990000000     0.260540000000     0.584440000000     0.0510396  
H86      H      0.483760000000     0.260290000000     0.711570000000     0.0509359  
H87      H      0.483490000000     0.189230000000     0.710620000000     0.0509337  
H88      H      0.480700000000     0.189470000000     0.583490000000     0.0510167  
H89      H      0.408220000000     0.386500000000     0.550710000000     0.0514079  
H90      H      0.533760000000     0.512540000000     0.552540000000     0.0513622  
H91      H      0.507280000000     0.539300000000     0.997690000000     0.0513569  
H92      H      0.381760000000     0.413260000000     0.995870000000     0.0512551  
H93      H      0.407910000000     0.386490000000     0.746060000000     0.0512194  
H94      H      0.534570000000     0.511380000000     0.747980000000     0.0512568  
H95      H      0.508010000000     0.538190000000     0.802320000000     0.0512086  
H96      H      0.381350000000     0.413310000000     0.800390000000     0.0514399  
In1      In     0.518500000000     0.401330000000     0.149340000000     2.40739    
In2      In     0.397120000000     0.523800000000     0.398460000000     2.40785    
In3      In     0.835340000000     0.400970000000     0.147760000000     2.40883    
In4      In     0.079530000000     0.522660000000     0.399580000000     2.40876    
In5      In     0.517530000000     0.084160000000     0.145050000000     2.40817    
In6      In     0.396480000000     0.840160000000     0.394120000000     2.40787    
In7      In     0.518500000000     0.401330000000     0.649340000000     2.40725    
In8      In     0.397120000000     0.523800000000     0.898460000000     2.40773    
In9      In     0.835340000000     0.400970000000     0.647760000000     2.4088     
In10     In     0.079530000000     0.522660000000     0.899580000000     2.40874    
In11     In     0.517520000000     0.084160000000     0.645050000000     2.40806    
In12     In     0.396480000000     0.840150000000     0.894120000000     2.40776    
O1       O      0.465580000000     0.392720000000     0.103840000000    -0.484046   
O2       O      0.527470000000     0.454580000000     0.104590000000    -0.483914   
O3       O      0.465620000000     0.392480000000     0.194210000000    -0.484745   
O4       O      0.497510000000     0.334670000000     0.179990000000    -0.482524   
O5       O      0.584880000000     0.422870000000     0.118240000000    -0.482417   
O6       O      0.496710000000     0.334960000000     0.117560000000    -0.482556   
O7       O      0.527780000000     0.454030000000     0.194990000000    -0.484773   
O8       O      0.585110000000     0.421860000000     0.180670000000    -0.482544   
O9       O      0.388280000000     0.470820000000     0.443430000000    -0.485355   
O10      O      0.449840000000     0.532980000000     0.444450000000    -0.483495   
O11      O      0.450290000000     0.532260000000     0.354100000000    -0.48542    
O12      O      0.329190000000     0.500240000000     0.368390000000    -0.481303   
O13      O      0.420590000000     0.591720000000     0.428060000000    -0.481387   
O14      O      0.332040000000     0.504940000000     0.430710000000    -0.48377    
O15      O      0.387880000000     0.470960000000     0.352990000000    -0.483566   
O16      O      0.415920000000     0.588750000000     0.365720000000    -0.483881   
O17      O      0.879080000000     0.391800000000     0.193390000000    -0.483624   
O18      O      0.879620000000     0.453840000000     0.193240000000    -0.484797   
O19      O      0.879480000000     0.392130000000     0.103010000000    -0.48539    
O20      O      0.789040000000     0.335260000000     0.115480000000    -0.483509   
O21      O      0.789930000000     0.421230000000     0.179620000000    -0.483194   
O22      O      0.790600000000     0.333810000000     0.177870000000    -0.482187   
O23      O      0.879470000000     0.453870000000     0.102880000000    -0.484593   
O24      O      0.790290000000     0.423150000000     0.117210000000    -0.48214    
O25      O      0.035210000000     0.469580000000     0.354240000000    -0.483648   
O26      O      0.035090000000     0.531280000000     0.354400000000    -0.484807   
O27      O      0.035530000000     0.469870000000     0.444600000000    -0.485599   
O28      O      0.126270000000     0.503620000000     0.431490000000    -0.483428   
O29      O      0.125180000000     0.590090000000     0.429710000000    -0.482157   
O30      O      0.123610000000     0.499690000000     0.369120000000    -0.481861   
O31      O      0.036010000000     0.531850000000     0.444790000000    -0.484751   
O32      O      0.124550000000     0.588170000000     0.367290000000    -0.483166   
O33      O      0.526660000000     0.040420000000     0.099860000000    -0.485079   
O34      O      0.464890000000     0.040500000000     0.099020000000    -0.48413    
O35      O      0.526620000000     0.040310000000     0.190290000000    -0.483926   
O36      O      0.584690000000     0.128830000000     0.176170000000    -0.481854   
O37      O      0.495380000000     0.129280000000     0.114810000000    -0.482037   
O38      O      0.583400000000     0.130270000000     0.113760000000    -0.4831     
O39      O      0.464280000000     0.039250000000     0.189320000000    -0.484706   
O40      O      0.497370000000     0.129580000000     0.177240000000    -0.483305   
O41      O      0.449460000000     0.884660000000     0.439540000000    -0.483688   
O42      O      0.387640000000     0.884670000000     0.438680000000    -0.48417    
O43      O      0.449250000000     0.884260000000     0.349190000000    -0.485544   
O44      O      0.416130000000     0.793790000000     0.362920000000    -0.483256   
O45      O      0.330870000000     0.795090000000     0.426200000000    -0.482932   
O46      O      0.419550000000     0.796290000000     0.425310000000    -0.481818   
O47      O      0.386910000000     0.883180000000     0.348280000000    -0.484532   
O48      O      0.329150000000     0.794140000000     0.363760000000    -0.481997   
O49      O      0.465580000000     0.392720000000     0.603840000000    -0.484039   
O50      O      0.527470000000     0.454580000000     0.604590000000    -0.483899   
O51      O      0.465620000000     0.392490000000     0.694210000000    -0.484814   
O52      O      0.497510000000     0.334670000000     0.679990000000    -0.482456   
O53      O      0.584880000000     0.422870000000     0.618240000000    -0.482461   
O54      O      0.496710000000     0.334960000000     0.617550000000    -0.482345   
O55      O      0.527780000000     0.454030000000     0.694990000000    -0.484811   
O56      O      0.585110000000     0.421860000000     0.680670000000    -0.482593   
O57      O      0.388280000000     0.470820000000     0.943430000000    -0.485357   
O58      O      0.449840000000     0.532980000000     0.944450000000    -0.483491   
O59      O      0.450290000000     0.532260000000     0.854100000000    -0.485404   
O60      O      0.329190000000     0.500240000000     0.868390000000    -0.481221   
O61      O      0.420590000000     0.591720000000     0.928060000000    -0.481385   
O62      O      0.332040000000     0.504940000000     0.930720000000    -0.483553   
O63      O      0.387880000000     0.470960000000     0.852990000000    -0.483553   
O64      O      0.415920000000     0.588750000000     0.865720000000    -0.483877   
O65      O      0.879080000000     0.391800000000     0.693390000000    -0.48375    
O66      O      0.879630000000     0.453840000000     0.693240000000    -0.484804   
O67      O      0.879480000000     0.392140000000     0.603010000000    -0.485587   
O68      O      0.789040000000     0.335260000000     0.615480000000    -0.483445   
O69      O      0.789930000000     0.421230000000     0.679620000000    -0.48322    
O70      O      0.790590000000     0.333810000000     0.677880000000    -0.48199    
O71      O      0.879470000000     0.453870000000     0.602880000000    -0.484651   
O72      O      0.790290000000     0.423150000000     0.617210000000    -0.482153   
O73      O      0.035210000000     0.469580000000     0.854240000000    -0.483581   
O74      O      0.035090000000     0.531280000000     0.854400000000    -0.484764   
O75      O      0.035530000000     0.469870000000     0.944590000000    -0.485622   
O76      O      0.126280000000     0.503620000000     0.931480000000    -0.483654   
O77      O      0.125180000000     0.590090000000     0.929720000000    -0.48196    
O78      O      0.123610000000     0.499690000000     0.869130000000    -0.482154   
O79      O      0.036010000000     0.531860000000     0.944790000000    -0.484583   
O80      O      0.124550000000     0.588170000000     0.867290000000    -0.483094   
O81      O      0.526660000000     0.040420000000     0.599860000000    -0.484951   
O82      O      0.464880000000     0.040500000000     0.599010000000    -0.483951   
O83      O      0.526620000000     0.040310000000     0.690290000000    -0.48385    
O84      O      0.584690000000     0.128830000000     0.676170000000    -0.48181    
O85      O      0.495380000000     0.129280000000     0.614810000000    -0.482121   
O86      O      0.583400000000     0.130270000000     0.613770000000    -0.483196   
O87      O      0.464280000000     0.039250000000     0.689320000000    -0.484781   
O88      O      0.497370000000     0.129580000000     0.677240000000    -0.48338    
O89      O      0.449460000000     0.884660000000     0.939550000000    -0.483591   
O90      O      0.387640000000     0.884670000000     0.938680000000    -0.484058   
O91      O      0.449250000000     0.884260000000     0.849190000000    -0.485513   
O92      O      0.416130000000     0.793790000000     0.862920000000    -0.483358   
O93      O      0.330870000000     0.795090000000     0.926200000000    -0.483001   
O94      O      0.419550000000     0.796290000000     0.925310000000    -0.481921   
O95      O      0.386910000000     0.883180000000     0.848280000000    -0.484421   
O96      O      0.329150000000     0.794140000000     0.863760000000    -0.482065   


