data_structure

_audit_creation_method RASPA-1.0
_audit_creation_date 2023-5-22
_audit_author_name 'Poobodin Mano'

_cell_length_a    30.2687
_cell_length_b    32.1813
_cell_length_c    32.8755
_cell_angle_alpha 89.9999
_cell_angle_beta  89.9994
_cell_angle_gamma 119.884
_cell_volume      27765.6

_symmetry_cell_setting          triclinic
_symmetry_space_group_name_Hall 'P 1'
_symmetry_space_group_name_H-M  'P 1'
_symmetry_Int_Tables_number     1

_symmetry_equiv_pos_as_xyz 'x,y,z'

loop_
_atom_site_label
_atom_site_type_symbol
_atom_site_fract_x
_atom_site_fract_y
_atom_site_fract_z
_atom_site_charge
C1       C      0.436190000000     0.623950000000     0.257680000000     0.348242   
C2       C      0.483570000000     0.524630000000     0.188880000000     0.351085   
C3       C      0.416090000000     0.493230000000     0.307580000000     0.348375   
C4       C      0.330360000000     0.501170000000     0.192120000000     0.352702   
C5       C      0.196510000000     0.615440000000     0.022040000000     0.346189   
C6       C      0.043140000000     0.517020000000     0.097360000000     0.347245   
C7       C      0.072350000000     0.492240000000     0.478110000000     0.347907   
C8       C      0.172900000000     0.500520000000     0.095410000000     0.348748   
C9       C      0.351440000000     0.775010000000     0.431740000000     0.341041   
C10      C      0.446010000000     0.908540000000     0.329040000000     0.341958   
C11      C      0.463120000000     0.906410000000     0.448380000000     0.341513   
C12      C      0.440580000000     0.783190000000     0.340830000000     0.341334   
C13      C      0.775220000000     0.335930000000     0.272030000000     0.346334   
C14      C      0.929240000000     0.433460000000     0.347410000000     0.347189   
C15      C      0.900220000000     0.458240000000     0.228290000000     0.347713   
C16      C      0.800250000000     0.450880000000     0.345870000000     0.348518   
C17      C      0.536270000000     0.329530000000     0.507720000000     0.34842    
C18      C      0.490820000000     0.429770000000     0.438980000000     0.351529   
C19      C      0.558670000000     0.461240000000     0.057750000000     0.348518   
C20      C      0.643890000000     0.452210000000     0.442680000000     0.353052   
C21      C      0.619230000000     0.177230000000     0.181630000000     0.340982   
C22      C      0.524050000000     0.043920000000     0.079030000000     0.341924   
C23      C      0.506950000000     0.046090000000     0.198420000000     0.341801   
C24      C      0.530050000000     0.169500000000     0.090850000000     0.341519   
C25      C      0.489260000000     0.256540000000     0.051940000000    -0.00369392 
C26      C      0.528870000000     0.283900000000     0.024440000000    -0.0746216  
C27      C      0.565450000000     0.270360000000     0.016360000000    -0.00330212 
C28      C      0.564110000000     0.231810000000     0.036750000000    -0.00770356 
C29      C      0.526400000000     0.206050000000     0.066050000000    -0.0685726  
C30      C      0.488140000000     0.217940000000     0.072760000000    -0.00823457 
C31      C      0.767570000000     0.458550000000     0.413530000000    -0.00548794 
C32      C      0.766210000000     0.461030000000     0.370910000000    -0.0732506  
C33      C      0.728050000000     0.467280000000     0.352540000000    -0.00527037 
C34      C      0.689570000000     0.467170000000     0.376220000000    -0.00443443 
C35      C      0.689300000000     0.461900000000     0.418680000000    -0.0748218  
C36      C      0.729760000000     0.459520000000     0.437250000000    -0.00364887 
C37      C      0.745690000000     0.259480000000     0.233100000000    -0.00406484 
C38      C      0.734780000000     0.292350000000     0.252350000000    -0.0730421  
C39      C      0.685500000000     0.285840000000     0.249440000000    -0.00450613 
C40      C      0.648020000000     0.247830000000     0.227100000000    -0.007056   
C41      C      0.659150000000     0.215850000000     0.206570000000    -0.0686144  
C42      C      0.708190000000     0.221660000000     0.210050000000    -0.00753633 
C43      C      0.424170000000     0.954390000000     0.278150000000    -0.00651787 
C44      C      0.459940000000     0.944370000000     0.296300000000    -0.0695427  
C45      C      0.510590000000     0.968870000000     0.282660000000    -0.00619616 
C46      C      0.525210000000     0.001990000000     0.251260000000    -0.0054702  
C47      C      0.489750000000     0.011920000000     0.232690000000    -0.0696426  
C48      C      0.439090000000     0.988250000000     0.246610000000    -0.00640728 
C49      C      0.444850000000     0.950670000000     0.001090000000    -0.00444793 
C50      C      0.480270000000     0.940610000000     0.482620000000    -0.069584   
C51      C      0.530890000000     0.964150000000     0.496650000000    -0.00635236 
C52      C      0.545810000000     0.997980000000     0.528200000000    -0.00661778 
C53      C      0.510080000000     0.008120000000     0.046260000000    -0.0693712  
C54      C      0.459480000000     0.983770000000     0.032520000000    -0.00651868 
C55      C      0.964850000000     0.411490000000     0.407570000000    -0.00609855 
C56      C      0.970340000000     0.444260000000     0.376950000000    -0.073115   
C57      C      0.013640000000     0.490170000000     0.377120000000    -0.00606552 
C58      C      0.048580000000     0.504430000000     0.408890000000    -0.0039624  
C59      C      0.041310000000     0.472990000000     0.441050000000    -0.0747663  
C60      C      0.000310000000     0.425750000000     0.439420000000    -0.00476613 
C61      C      0.959110000000     0.459940000000     0.127450000000    -0.00609008 
C62      C      0.002090000000     0.506050000000     0.127000000000    -0.073081   
C63      C      0.007340000000     0.538960000000     0.157400000000    -0.00597314 
C64      C      0.971940000000     0.524700000000     0.189310000000    -0.00494048 
C65      C      0.931250000000     0.477320000000     0.191200000000    -0.0745455  
C66      C      0.924240000000     0.445690000000     0.159270000000    -0.00402338 
C67      C      0.225160000000     0.691690000000     0.483000000000    -0.00407511 
C68      C      0.236630000000     0.659280000000     0.502430000000    -0.073073   
C69      C      0.286210000000     0.666490000000     0.499740000000    -0.00450796 
C70      C      0.323430000000     0.704710000000     0.477420000000    -0.00704581 
C71      C      0.311760000000     0.736210000000     0.456700000000    -0.0686735  
C72      C      0.262420000000     0.729720000000     0.459980000000    -0.00751633 
C73      C      0.512170000000     0.469830000000     0.161610000000    -0.00520856 
C74      C      0.513250000000     0.513920000000     0.159250000000    -0.0753926  
C75      C      0.537280000000     0.544130000000     0.125840000000    -0.00513282 
C76      C      0.556140000000     0.528680000000     0.093800000000    -0.00528738 
C77      C      0.550850000000     0.482740000000     0.094740000000    -0.074858   
C78      C      0.530570000000     0.454340000000     0.129620000000    -0.00481428 
C79      C      0.418230000000     0.425760000000     0.343910000000    -0.0053367  
C80      C      0.424020000000     0.471890000000     0.344620000000    -0.0747542  
C81      C      0.444720000000     0.500530000000     0.379320000000    -0.00497904 
C82      C      0.463000000000     0.485010000000     0.411370000000    -0.00503069 
C83      C      0.461370000000     0.440670000000     0.409270000000    -0.0756049  
C84      C      0.436980000000     0.410280000000     0.376020000000    -0.00508407 
C85      C      0.482850000000     0.697400000000     0.301450000000    -0.00395593 
C86      C      0.442920000000     0.669340000000     0.274420000000    -0.0742548  
C87      C      0.405500000000     0.681930000000     0.266840000000    -0.00407122 
C88      C      0.406400000000     0.720270000000     0.287240000000    -0.00740997 
C89      C      0.444490000000     0.746770000000     0.316060000000    -0.0687452  
C90      C      0.483520000000     0.735790000000     0.322290000000    -0.00808712 
C91      C      0.243770000000     0.492220000000     0.186660000000    -0.00377407 
C92      C      0.284840000000     0.490980000000     0.168040000000    -0.0745742  
C93      C      0.284970000000     0.486330000000     0.125530000000    -0.00460451 
C94      C      0.246200000000     0.485710000000     0.101870000000    -0.00509567 
C95      C      0.207350000000     0.490820000000     0.120320000000    -0.0734613  
C96      C      0.205650000000     0.492680000000     0.162970000000    -0.00535441 
C97      C      0.436210000000     0.623970000000     0.757670000000     0.34832    
C98      C      0.483600000000     0.524660000000     0.688870000000     0.350964   
C99      C      0.416130000000     0.493250000000     0.807570000000     0.348431   
C100     C      0.330380000000     0.501180000000     0.692110000000     0.352388   
C101     C      0.196510000000     0.615430000000     0.522030000000     0.346672   
C102     C      0.043150000000     0.517000000000     0.597380000000     0.347015   
C103     C      0.072370000000     0.492230000000     0.978100000000     0.347449   
C104     C      0.172910000000     0.500530000000     0.595400000000     0.349091   
C105     C      0.351430000000     0.775010000000     0.931740000000     0.341168   
C106     C      0.446000000000     0.908540000000     0.829040000000     0.341944   
C107     C      0.463120000000     0.906400000000     0.948380000000     0.341939   
C108     C      0.440580000000     0.783200000000     0.840830000000     0.341366   
C109     C      0.775210000000     0.335920000000     0.772030000000     0.346745   
C110     C      0.929240000000     0.433430000000     0.847420000000     0.34711    
C111     C      0.900220000000     0.458220000000     0.728300000000     0.347698   
C112     C      0.800250000000     0.450880000000     0.845870000000     0.348748   
C113     C      0.536290000000     0.329550000000     0.007730000000     0.348993   
C114     C      0.490840000000     0.429790000000     0.938980000000     0.35149    
C115     C      0.558700000000     0.461260000000     0.557750000000     0.34857    
C116     C      0.643890000000     0.452210000000     0.942680000000     0.353156   
C117     C      0.619210000000     0.177230000000     0.681630000000     0.341039   
C118     C      0.524030000000     0.043910000000     0.579040000000     0.342031   
C119     C      0.506930000000     0.046090000000     0.698420000000     0.341714   
C120     C      0.530020000000     0.169490000000     0.590850000000     0.341646   
C121     C      0.489240000000     0.256550000000     0.551950000000    -0.00388922 
C122     C      0.528840000000     0.283890000000     0.524430000000    -0.0743685  
C123     C      0.565390000000     0.270320000000     0.516330000000    -0.00402532 
C124     C      0.564050000000     0.231780000000     0.536730000000    -0.00740032 
C125     C      0.526370000000     0.206040000000     0.566050000000    -0.068777   
C126     C      0.488120000000     0.217940000000     0.572780000000    -0.00813816 
C127     C      0.767570000000     0.458560000000     0.913530000000    -0.00541359 
C128     C      0.766220000000     0.461030000000     0.870910000000    -0.0734366  
C129     C      0.728040000000     0.467260000000     0.852540000000    -0.005197   
C130     C      0.689560000000     0.467160000000     0.876210000000    -0.00451538 
C131     C      0.689300000000     0.461900000000     0.918680000000    -0.074861   
C132     C      0.729760000000     0.459530000000     0.937250000000    -0.00367492 
C133     C      0.745670000000     0.259470000000     0.733110000000    -0.00395522 
C134     C      0.734770000000     0.292340000000     0.752350000000    -0.073245   
C135     C      0.685490000000     0.285840000000     0.749440000000    -0.00444594 
C136     C      0.648010000000     0.247830000000     0.727090000000    -0.00713022 
C137     C      0.659140000000     0.215850000000     0.706570000000    -0.0686013  
C138     C      0.708180000000     0.221660000000     0.710050000000    -0.00759882 
C139     C      0.424150000000     0.954390000000     0.778150000000    -0.00654169 
C140     C      0.459930000000     0.944370000000     0.796300000000    -0.0695572  
C141     C      0.510580000000     0.968880000000     0.782670000000    -0.00620378 
C142     C      0.525200000000     0.001990000000     0.751260000000    -0.00550008 
C143     C      0.489740000000     0.011920000000     0.732690000000    -0.0696178  
C144     C      0.439070000000     0.988240000000     0.746610000000    -0.00643292 
C145     C      0.444850000000     0.950670000000     0.501090000000    -0.00553046 
C146     C      0.480270000000     0.940600000000     0.982630000000    -0.0701962  
C147     C      0.530900000000     0.964150000000     0.996640000000    -0.00668553 
C148     C      0.545810000000     0.997980000000     0.028200000000    -0.00619404 
C149     C      0.510070000000     0.008110000000     0.546260000000    -0.0694243  
C150     C      0.459470000000     0.983770000000     0.532520000000    -0.00624908 
C151     C      0.964830000000     0.411470000000     0.907580000000    -0.00608321 
C152     C      0.970340000000     0.444240000000     0.876960000000    -0.0731516  
C153     C      0.013650000000     0.490140000000     0.877110000000    -0.00606615 
C154     C      0.048600000000     0.504390000000     0.908880000000    -0.0040115  
C155     C      0.041320000000     0.472970000000     0.941040000000    -0.0746554  
C156     C      0.000300000000     0.425730000000     0.939440000000    -0.00491399 
C157     C      0.959130000000     0.459910000000     0.627460000000    -0.00614194 
C158     C      0.002100000000     0.506030000000     0.627010000000    -0.0730551  
C159     C      0.007340000000     0.538950000000     0.657410000000    -0.00602942 
C160     C      0.971940000000     0.524680000000     0.689310000000    -0.00492436 
C161     C      0.931260000000     0.477290000000     0.691210000000    -0.0745494  
C162     C      0.924250000000     0.445660000000     0.659280000000    -0.00404797 
C163     C      0.225150000000     0.691680000000     0.983000000000    -0.0049601  
C164     C      0.236620000000     0.659280000000     0.002430000000    -0.0717002  
C165     C      0.286210000000     0.666500000000     0.999760000000    -0.00598491 
C166     C      0.323430000000     0.704720000000     0.977440000000    -0.00646635 
C167     C      0.311750000000     0.736220000000     0.956710000000    -0.0690701  
C168     C      0.262400000000     0.729720000000     0.959970000000    -0.00715111 
C169     C      0.512220000000     0.469870000000     0.661610000000    -0.00522224 
C170     C      0.513280000000     0.513940000000     0.659240000000    -0.0753037  
C171     C      0.537290000000     0.544150000000     0.625820000000    -0.00522258 
C172     C      0.556160000000     0.528700000000     0.593780000000    -0.0052836  
C173     C      0.550880000000     0.482760000000     0.594730000000    -0.0749903  
C174     C      0.530630000000     0.454370000000     0.629620000000    -0.00480956 
C175     C      0.418260000000     0.425780000000     0.843910000000    -0.00528472 
C176     C      0.424050000000     0.471910000000     0.844600000000    -0.0749076  
C177     C      0.444760000000     0.500560000000     0.879300000000    -0.00492887 
C178     C      0.463030000000     0.485040000000     0.911360000000    -0.00510309 
C179     C      0.461400000000     0.440690000000     0.909260000000    -0.0756185  
C180     C      0.437000000000     0.410310000000     0.876010000000    -0.00508034 
C181     C      0.482860000000     0.697420000000     0.801440000000    -0.00386889 
C182     C      0.442930000000     0.669350000000     0.774410000000    -0.0743854  
C183     C      0.405500000000     0.681940000000     0.766830000000    -0.00401197 
C184     C      0.406400000000     0.720280000000     0.787230000000    -0.00750732 
C185     C      0.444500000000     0.746770000000     0.816050000000    -0.0686277  
C186     C      0.483520000000     0.735800000000     0.822290000000    -0.0081907  
C187     C      0.243790000000     0.492220000000     0.686650000000    -0.0038585  
C188     C      0.284860000000     0.490990000000     0.668030000000    -0.0744633  
C189     C      0.284990000000     0.486340000000     0.625520000000    -0.004719   
C190     C      0.246220000000     0.485720000000     0.601870000000    -0.00501084 
C191     C      0.207370000000     0.490830000000     0.620320000000    -0.0735845  
C192     C      0.205680000000     0.492690000000     0.662960000000    -0.00523214 
H1       H      0.460700000000     0.266410000000     0.058840000000     0.0502713  
H2       H      0.596190000000     0.290550000000     0.495120000000     0.0494218  
H3       H      0.593900000000     0.223360000000     0.030530000000     0.0533134  
H4       H      0.458510000000     0.198590000000     0.095060000000     0.05128    
H5       H      0.796720000000     0.453880000000     0.428450000000     0.0486192  
H6       H      0.726020000000     0.469110000000     0.319740000000     0.0501994  
H7       H      0.658840000000     0.469150000000     0.361140000000     0.0482245  
H8       H      0.730440000000     0.455250000000     0.469890000000     0.0505197  
H9       H      0.783590000000     0.264010000000     0.234630000000     0.0505885  
H10      H      0.676060000000     0.310660000000     0.263950000000     0.0490293  
H11      H      0.610540000000     0.244250000000     0.225110000000     0.0520888  
H12      H      0.717660000000     0.197320000000     0.194740000000     0.0512376  
H13      H      0.384870000000     0.936050000000     0.288190000000     0.0509959  
H14      H      0.539190000000     0.962150000000     0.295970000000     0.0533253  
H15      H      0.564630000000     0.019800000000     0.241470000000     0.0528886  
H16      H      0.411010000000     0.995270000000     0.232740000000     0.0501536  
H17      H      0.405470000000     0.932970000000     0.991220000000     0.0523729  
H18      H      0.558950000000     0.957030000000     0.482860000000     0.0502187  
H19      H      0.585070000000     0.016200000000     0.538330000000     0.0510933  
H20      H      0.430920000000     0.990600000000     0.045750000000     0.053406   
H21      H      0.931880000000     0.375790000000     0.408070000000     0.0511112  
H22      H      0.019310000000     0.516090000000     0.353730000000     0.0515876  
H23      H      0.080150000000     0.540930000000     0.409210000000     0.0491003  
H24      H      0.993850000000     0.400900000000     0.463970000000     0.0494491  
H25      H      0.953630000000     0.433900000000     0.104230000000     0.051634   
H26      H      0.040050000000     0.574810000000     0.157690000000     0.0511277  
H27      H      0.978200000000     0.549700000000     0.213670000000     0.0495887  
H28      H      0.892900000000     0.409070000000     0.159790000000     0.0491925  
H29      H      0.187030000000     0.686610000000     0.484350000000     0.0506081  
H30      H      0.296080000000     0.642040000000     0.514390000000     0.049029   
H31      H      0.361150000000     0.708820000000     0.475600000000     0.0521605  
H32      H      0.252530000000     0.753690000000     0.444520000000     0.0511997  
H33      H      0.494420000000     0.445950000000     0.187160000000     0.0509136  
H34      H      0.538780000000     0.578370000000     0.123310000000     0.0501906  
H35      H      0.571570000000     0.551260000000     0.067180000000     0.0503532  
H36      H      0.526440000000     0.418940000000     0.131300000000     0.0491857  
H37      H      0.402460000000     0.403000000000     0.317440000000     0.0503046  
H38      H      0.449240000000     0.536080000000     0.380810000000     0.0492012  
H39      H      0.481060000000     0.509040000000     0.436790000000     0.0509014  
H40      H      0.435060000000     0.375850000000     0.373680000000     0.0501167  
H41      H      0.512060000000     0.688270000000     0.307970000000     0.0502564  
H42      H      0.374420000000     0.661120000000     0.246020000000     0.0493956  
H43      H      0.376000000000     0.728000000000     0.281400000000     0.0531383  
H44      H      0.513460000000     0.755730000000     0.344220000000     0.0512594  
H45      H      0.242770000000     0.495980000000     0.219340000000     0.0506116  
H46      H      0.316180000000     0.485230000000     0.110420000000     0.0482817  
H47      H      0.248500000000     0.484390000000     0.069060000000     0.0501906  
H48      H      0.175980000000     0.496480000000     0.177950000000     0.0485488  
H49      H      0.460700000000     0.266430000000     0.558870000000     0.0502869  
H50      H      0.596260000000     0.290600000000     0.995160000000     0.0489689  
H51      H      0.593830000000     0.223310000000     0.530500000000     0.053145   
H52      H      0.458510000000     0.198610000000     0.595090000000     0.0512269  
H53      H      0.796730000000     0.453890000000     0.928450000000     0.0485428  
H54      H      0.726020000000     0.469090000000     0.819740000000     0.0501655  
H55      H      0.658830000000     0.469130000000     0.861140000000     0.0482282  
H56      H      0.730440000000     0.455270000000     0.969900000000     0.0504569  
H57      H      0.783570000000     0.263990000000     0.734640000000     0.0505269  
H58      H      0.676060000000     0.310660000000     0.763950000000     0.0489973  
H59      H      0.610540000000     0.244250000000     0.725100000000     0.0520938  
H60      H      0.717640000000     0.197310000000     0.694740000000     0.0512235  
H61      H      0.384850000000     0.936040000000     0.788190000000     0.0509757  
H62      H      0.539180000000     0.962160000000     0.795970000000     0.0533001  
H63      H      0.564620000000     0.019810000000     0.741480000000     0.0528764  
H64      H      0.410990000000     0.995260000000     0.732730000000     0.0501311  
H65      H      0.405470000000     0.932970000000     0.491210000000     0.0528898  
H66      H      0.558950000000     0.957030000000     0.982850000000     0.0502047  
H67      H      0.585080000000     0.016200000000     0.038320000000     0.0510865  
H68      H      0.430910000000     0.990590000000     0.545750000000     0.0532553  
H69      H      0.931860000000     0.375780000000     0.908100000000     0.0510535  
H70      H      0.019330000000     0.516050000000     0.853710000000     0.0515642  
H71      H      0.080180000000     0.540890000000     0.909180000000     0.0490674  
H72      H      0.993840000000     0.400890000000     0.963990000000     0.0493779  
H73      H      0.953660000000     0.433870000000     0.604250000000     0.0515987  
H74      H      0.040050000000     0.574800000000     0.657700000000     0.0511166  
H75      H      0.978190000000     0.549690000000     0.713670000000     0.0495569  
H76      H      0.892930000000     0.409040000000     0.659810000000     0.0491749  
H77      H      0.187010000000     0.686600000000     0.984340000000     0.0507085  
H78      H      0.296080000000     0.642060000000     0.014420000000     0.0496443  
H79      H      0.361150000000     0.708840000000     0.975620000000     0.0519355  
H80      H      0.252510000000     0.753670000000     0.944500000000     0.0510731  
H81      H      0.494480000000     0.445990000000     0.687170000000     0.0509018  
H82      H      0.538780000000     0.578380000000     0.623280000000     0.0501738  
H83      H      0.571570000000     0.551260000000     0.567160000000     0.0502846  
H84      H      0.526510000000     0.418980000000     0.631310000000     0.0491619  
H85      H      0.402480000000     0.403020000000     0.817430000000     0.0502622  
H86      H      0.449280000000     0.536110000000     0.880800000000     0.0491461  
H87      H      0.481100000000     0.509070000000     0.936780000000     0.0508486  
H88      H      0.435070000000     0.375860000000     0.873680000000     0.0500777  
H89      H      0.512080000000     0.688290000000     0.807960000000     0.0501986  
H90      H      0.374420000000     0.661120000000     0.746010000000     0.0493607  
H91      H      0.375990000000     0.728000000000     0.781400000000     0.0531404  
H92      H      0.513460000000     0.755740000000     0.844210000000     0.0512524  
H93      H      0.242800000000     0.495990000000     0.719340000000     0.0506117  
H94      H      0.316200000000     0.485240000000     0.610410000000     0.0482691  
H95      H      0.248520000000     0.484400000000     0.569050000000     0.0500995  
H96      H      0.176000000000     0.496500000000     0.677950000000     0.0484955  
In1      In     0.416980000000     0.535410000000     0.236240000000     2.39559    
In2      In     0.120830000000     0.530570000000     0.048760000000     2.41612    
In3      In     0.425930000000     0.843620000000     0.387240000000     2.4841     
In4      In     0.851590000000     0.420290000000     0.298950000000     2.41666    
In5      In     0.557060000000     0.418600000000     0.486470000000     2.39496    
In6      In     0.544330000000     0.108850000000     0.137260000000     2.48382    
In7      In     0.417010000000     0.535430000000     0.736230000000     2.39558    
In8      In     0.120830000000     0.530570000000     0.548760000000     2.41585    
In9      In     0.425920000000     0.843620000000     0.887240000000     2.48442    
In10     In     0.851580000000     0.420270000000     0.798960000000     2.41691    
In11     In     0.557060000000     0.418610000000     0.986470000000     2.39415    
In12     In     0.544310000000     0.108850000000     0.637260000000     2.48395    
O1       O      0.373980000000     0.519450000000     0.176210000000    -0.489852   
O2       O      0.330060000000     0.498630000000     0.230500000000    -0.474325   
O3       O      0.480880000000     0.562580000000     0.188250000000    -0.474687   
O4       O      0.393040000000     0.590910000000     0.246520000000    -0.492213   
O5       O      0.391530000000     0.469070000000     0.276960000000    -0.468463   
O6       O      0.471020000000     0.613140000000     0.256900000000    -0.464257   
O7       O      0.453930000000     0.493530000000     0.213850000000    -0.495867   
O8       O      0.439180000000     0.537920000000     0.302370000000    -0.492245   
O9       O      0.153990000000     0.524890000000     0.109030000000    -0.49494    
O10      O      0.164670000000     0.490120000000     0.058030000000    -0.473946   
O11      O      0.083580000000     0.557250000000     0.095040000000    -0.471612   
O12      O      0.154200000000     0.610330000000     0.033570000000    -0.466606   
O13      O      0.077090000000     0.466710000000     0.505080000000    -0.468127   
O14      O      0.200710000000     0.578510000000     0.525360000000    -0.495081   
O15      O      0.042210000000     0.484830000000     0.074910000000    -0.499875   
O16      O      0.092600000000     0.536050000000     0.986740000000    -0.499575   
O17      O      0.403140000000     0.790050000000     0.336790000000    -0.50726    
O18      O      0.471940000000     0.807570000000     0.368760000000    -0.477522   
O19      O      0.400600000000     0.880990000000     0.340970000000    -0.475692   
O20      O      0.342250000000     0.799380000000     0.406170000000    -0.476835   
O21      O      0.488330000000     0.887800000000     0.434080000000    -0.475398   
O22      O      0.397540000000     0.785440000000     0.434120000000    -0.506242   
O23      O      0.479750000000     0.902810000000     0.346630000000    -0.511965   
O24      O      0.420680000000     0.893310000000     0.431490000000    -0.511439   
O25      O      0.818470000000     0.425860000000     0.359290000000    -0.494891   
O26      O      0.808790000000     0.461650000000     0.308570000000    -0.473984   
O27      O      0.888640000000     0.393340000000     0.345180000000    -0.471572   
O28      O      0.817160000000     0.340390000000     0.283840000000    -0.467116   
O29      O      0.895330000000     0.483900000000     0.255050000000    -0.468037   
O30      O      0.771710000000     0.373240000000     0.275210000000    -0.4953     
O31      O      0.930320000000     0.465710000000     0.324950000000    -0.500295   
O32      O      0.880100000000     0.414480000000     0.237160000000    -0.499484   
O33      O      0.600440000000     0.434870000000     0.426590000000    -0.489667   
O34      O      0.643940000000     0.454170000000     0.481080000000    -0.474729   
O35      O      0.493220000000     0.391680000000     0.438440000000    -0.47506    
O36      O      0.502160000000     0.341300000000     0.507630000000    -0.464142   
O37      O      0.535840000000     0.416520000000     0.052820000000    -0.4918     
O38      O      0.579500000000     0.361940000000     0.995990000000    -0.492347   
O39      O      0.520550000000     0.460820000000     0.463930000000    -0.495628   
O40      O      0.582690000000     0.485220000000     0.526880000000    -0.468637   
O41      O      0.567230000000     0.162280000000     0.086710000000    -0.507436   
O42      O      0.498760000000     0.145390000000     0.118900000000    -0.477662   
O43      O      0.569460000000     0.071350000000     0.090990000000    -0.47564    
O44      O      0.628080000000     0.152610000000     0.156100000000    -0.476663   
O45      O      0.481840000000     0.064790000000     0.184110000000    -0.475457   
O46      O      0.573250000000     0.167190000000     0.184050000000    -0.505957   
O47      O      0.490360000000     0.049740000000     0.096620000000    -0.511608   
O48      O      0.549350000000     0.059070000000     0.181520000000    -0.511697   
O49      O      0.374010000000     0.519460000000     0.676190000000    -0.489604   
O50      O      0.330090000000     0.498640000000     0.730490000000    -0.474256   
O51      O      0.480900000000     0.562600000000     0.688230000000    -0.474717   
O52      O      0.393060000000     0.590920000000     0.746510000000    -0.492249   
O53      O      0.391550000000     0.469090000000     0.776950000000    -0.468458   
O54      O      0.471040000000     0.613160000000     0.756880000000    -0.464341   
O55      O      0.453970000000     0.493550000000     0.713840000000    -0.495767   
O56      O      0.439210000000     0.537940000000     0.802350000000    -0.492378   
O57      O      0.154010000000     0.524900000000     0.609030000000    -0.494963   
O58      O      0.164670000000     0.490120000000     0.558040000000    -0.474182   
O59      O      0.083580000000     0.557240000000     0.595050000000    -0.471533   
O60      O      0.154220000000     0.610330000000     0.533590000000    -0.466983   
O61      O      0.077080000000     0.466700000000     0.005090000000    -0.467718   
O62      O      0.200710000000     0.578520000000     0.025390000000    -0.494976   
O63      O      0.042230000000     0.484810000000     0.574920000000    -0.499873   
O64      O      0.092570000000     0.536060000000     0.486760000000    -0.499461   
O65      O      0.403130000000     0.790050000000     0.836800000000    -0.507395   
O66      O      0.471930000000     0.807570000000     0.868760000000    -0.477617   
O67      O      0.400590000000     0.880990000000     0.840980000000    -0.475787   
O68      O      0.342240000000     0.799380000000     0.906170000000    -0.476907   
O69      O      0.488320000000     0.887800000000     0.934080000000    -0.475676   
O70      O      0.397530000000     0.785440000000     0.934120000000    -0.506341   
O71      O      0.479740000000     0.902810000000     0.846630000000    -0.511998   
O72      O      0.420680000000     0.893310000000     0.931490000000    -0.511666   
O73      O      0.818470000000     0.425850000000     0.859290000000    -0.495061   
O74      O      0.808790000000     0.461640000000     0.808580000000    -0.474142   
O75      O      0.888630000000     0.393320000000     0.845190000000    -0.4716     
O76      O      0.817140000000     0.340380000000     0.783850000000    -0.467419   
O77      O      0.895330000000     0.483880000000     0.755060000000    -0.46807    
O78      O      0.771710000000     0.373230000000     0.775210000000    -0.495524   
O79      O      0.930320000000     0.465690000000     0.824960000000    -0.500158   
O80      O      0.880100000000     0.414460000000     0.737170000000    -0.499458   
O81      O      0.600440000000     0.434850000000     0.926600000000    -0.48977    
O82      O      0.643950000000     0.454190000000     0.981080000000    -0.474671   
O83      O      0.493230000000     0.391690000000     0.938440000000    -0.475072   
O84      O      0.502170000000     0.341290000000     0.007600000000    -0.464068   
O85      O      0.535890000000     0.416530000000     0.552830000000    -0.491958   
O86      O      0.579460000000     0.361900000000     0.495940000000    -0.492102   
O87      O      0.520580000000     0.460840000000     0.963920000000    -0.495847   
O88      O      0.582700000000     0.485220000000     0.026900000000    -0.468293   
O89      O      0.567200000000     0.162270000000     0.586700000000    -0.507463   
O90      O      0.498740000000     0.145380000000     0.618900000000    -0.477851   
O91      O      0.569450000000     0.071360000000     0.590990000000    -0.475691   
O92      O      0.628060000000     0.152610000000     0.656100000000    -0.476703   
O93      O      0.481820000000     0.064790000000     0.684110000000    -0.475468   
O94      O      0.573230000000     0.167190000000     0.684040000000    -0.506085   
O95      O      0.490350000000     0.049730000000     0.596620000000    -0.511755   
O96      O      0.549340000000     0.059080000000     0.681530000000    -0.511655   


