data_structure

_audit_creation_method RASPA-1.0
_audit_creation_date 2023-5-22
_audit_author_name 'Poobodin Mano'

_cell_length_a    34.1234
_cell_length_b    34.1278
_cell_length_c    36.7856
_cell_angle_alpha 89.9949
_cell_angle_beta  89.7246
_cell_angle_gamma 119.999
_cell_volume      37099.4

_symmetry_cell_setting          triclinic
_symmetry_space_group_name_Hall 'P 1'
_symmetry_space_group_name_H-M  'P 1'
_symmetry_Int_Tables_number     1

_symmetry_equiv_pos_as_xyz 'x,y,z'

loop_
_atom_site_label
_atom_site_type_symbol
_atom_site_fract_x
_atom_site_fract_y
_atom_site_fract_z
_atom_site_charge
C1       C      0.709820000000     0.569170000000     0.227160000000     0.360122   
C2       C      0.834890000000     0.569330000000     0.281940000000     0.360294   
C3       C      0.699160000000     0.477820000000     0.312550000000     0.354888   
C4       C      0.754420000000     0.478040000000     0.196730000000     0.35486    
C5       C      0.553130000000     0.849250000000     0.060190000000     0.359992   
C6       C      0.553460000000     0.724250000000     0.115150000000     0.359962   
C7       C      0.461940000000     0.768380000000     0.145760000000     0.354956   
C8       C      0.462330000000     0.713590000000     0.029960000000     0.354698   
C9       C      0.833970000000     0.287200000000     0.893650000000     0.359788   
C10      C      0.708710000000     0.161770000000     0.948810000000     0.359885   
C11      C      0.753110000000     0.297350000000     0.979200000000     0.355121   
C12      C      0.698340000000     0.242390000000     0.863440000000     0.354857   
C13      C      0.147060000000     0.443710000000     0.782550000000     0.359713   
C14      C      0.272290000000     0.443480000000     0.727400000000     0.359846   
C15      C      0.227900000000     0.534690000000     0.696970000000     0.355288   
C16      C      0.282690000000     0.534540000000     0.812730000000     0.355058   
C17      C      0.427730000000     0.286400000000     0.616020000000     0.35975    
C18      C      0.427310000000     0.161020000000     0.561060000000     0.359746   
C19      C      0.518840000000     0.296660000000     0.530410000000     0.354939   
C20      C      0.518520000000     0.241500000000     0.646210000000     0.35499    
C21      C      0.270860000000     0.849660000000     0.449010000000     0.360016   
C22      C      0.145770000000     0.724770000000     0.394250000000     0.360118   
C23      C      0.281500000000     0.769000000000     0.363600000000     0.354612   
C24      C      0.226290000000     0.713940000000     0.479440000000     0.355085   
C25      C      0.288950000000     0.954600000000     0.498690000000    -0.0646301  
C26      C      0.336230000000     0.982550000000     0.496510000000     0.0228649  
C27      C      0.361600000000     0.966540000000     0.477990000000    -0.064732   
C28      C      0.340290000000     0.923500000000     0.462400000000     0.0219259  
C29      C      0.293130000000     0.895550000000     0.464820000000    -0.100345   
C30      C      0.267620000000     0.911580000000     0.482960000000     0.022559   
C31      C      0.359130000000     0.028110000000     0.513620000000     0.0228331  
C32      C      0.339810000000     0.056090000000     0.512060000000    -0.064637   
C33      C      0.361730000000     0.099120000000     0.527770000000     0.022551   
C34      C      0.403470000000     0.115130000000     0.545270000000    -0.100243   
C35      C      0.422670000000     0.087150000000     0.547080000000     0.0218293  
C36      C      0.400720000000     0.044100000000     0.531500000000    -0.064659   
C37      C      0.340710000000     0.304850000000     0.665500000000    -0.0645543  
C38      C      0.360090000000     0.352130000000     0.663260000000     0.0228235  
C39      C      0.401590000000     0.377370000000     0.644810000000    -0.0646981  
C40      C      0.423390000000     0.355950000000     0.629330000000     0.0218635  
C41      C      0.404110000000     0.308800000000     0.631790000000    -0.100204   
C42      C      0.362460000000     0.283410000000     0.649880000000     0.0224788  
C43      C      0.337340000000     0.375140000000     0.680220000000     0.0228664  
C44      C      0.290040000000     0.355810000000     0.678580000000    -0.0646481  
C45      C      0.268840000000     0.377800000000     0.694190000000     0.0225547  
C46      C      0.294470000000     0.419630000000     0.711650000000    -0.100211   
C47      C      0.341650000000     0.438860000000     0.713510000000     0.0218599  
C48      C      0.362830000000     0.416820000000     0.698060000000    -0.0647095  
C49      C      0.210010000000     0.563330000000     0.601280000000    -0.0641106  
C50      C      0.224020000000     0.609570000000     0.604300000000     0.0225714  
C51      C      0.238840000000     0.630780000000     0.638230000000    -0.0640813  
C52      C      0.239880000000     0.606390000000     0.668360000000     0.021334   
C53      C      0.226130000000     0.560270000000     0.665230000000    -0.097514   
C54      C      0.211050000000     0.538930000000     0.631430000000     0.0207158  
C55      C      0.223720000000     0.635750000000     0.572110000000     0.0225863  
C56      C      0.238160000000     0.629230000000     0.537920000000    -0.0640899  
C57      C      0.238700000000     0.654420000000     0.507780000000     0.0213314  
C58      C      0.224820000000     0.686680000000     0.511160000000    -0.097488   
C59      C      0.210080000000     0.693040000000     0.545220000000     0.02073    
C60      C      0.209540000000     0.667850000000     0.575380000000    -0.0641925  
C61      C      0.029780000000     0.417300000000     0.811530000000    -0.0647316  
C62      C      0.013450000000     0.375660000000     0.829660000000     0.0228895  
C63      C      0.041370000000     0.356300000000     0.831650000000    -0.0646625  
C64      C      0.084650000000     0.378200000000     0.816080000000     0.0225809  
C65      C      0.100980000000     0.419970000000     0.798300000000    -0.10023    
C66      C      0.073090000000     0.439250000000     0.796110000000     0.0218513  
C67      C      0.967590000000     0.352740000000     0.846550000000     0.0228162  
C68      C      0.951250000000     0.378050000000     0.864650000000    -0.064613   
C69      C      0.907940000000     0.356710000000     0.880070000000     0.0217752  
C70      C      0.880060000000     0.309540000000     0.877900000000    -0.100158   
C71      C      0.896410000000     0.284090000000     0.860170000000     0.0225365  
C72      C      0.939680000000     0.305460000000     0.844600000000    -0.0645924  
C73      C      0.613420000000     0.253460000000     0.804920000000    -0.0640705  
C74      C      0.619960000000     0.238740000000     0.770900000000     0.022564   
C75      C      0.652200000000     0.224710000000     0.767750000000    -0.0641353  
C76      C      0.677490000000     0.225660000000     0.797860000000     0.020689   
C77      C      0.671090000000     0.240650000000     0.831750000000    -0.097415   
C78      C      0.638710000000     0.254400000000     0.835010000000     0.0212914  
C79      C      0.593660000000     0.238570000000     0.738750000000     0.0225534  
C80      C      0.547370000000     0.224440000000     0.742020000000    -0.0641098  
C81      C      0.522880000000     0.225100000000     0.711910000000     0.0206801  
C82      C      0.544150000000     0.239920000000     0.677890000000    -0.0974587  
C83      C      0.590290000000     0.253760000000     0.674500000000     0.0213141  
C84      C      0.614790000000     0.253090000000     0.704590000000    -0.0641046  
C85      C      0.365480000000     0.757090000000     0.204590000000    -0.0640616  
C86      C      0.386510000000     0.771810000000     0.238560000000     0.0225864  
C87      C      0.432770000000     0.785890000000     0.241590000000    -0.064164   
C88      C      0.457340000000     0.785020000000     0.211400000000     0.0207229  
C89      C      0.436190000000     0.770030000000     0.177550000000    -0.0973513  
C90      C      0.390060000000     0.756200000000     0.174410000000     0.0212637  
C91      C      0.360130000000     0.771930000000     0.270800000000     0.0225662  
C92      C      0.328010000000     0.786070000000     0.267660000000    -0.064109   
C93      C      0.302650000000     0.785390000000     0.297860000000     0.0206143  
C94      C      0.308870000000     0.770540000000     0.331820000000    -0.0972614  
C95      C      0.341140000000     0.756680000000     0.335070000000     0.0212468  
C96      C      0.366500000000     0.757370000000     0.304890000000    -0.0640515  
C97      C      0.690910000000     0.056340000000     0.997670000000    -0.0646951  
C98      C      0.643610000000     0.028390000000     0.996010000000     0.0228923  
C99      C      0.618140000000     0.044590000000     0.978150000000    -0.0647205  
C100     C      0.639340000000     0.087810000000     0.962690000000     0.0218758  
C101     C      0.686520000000     0.115750000000     0.964570000000    -0.100266   
C102     C      0.712130000000     0.099540000000     0.982050000000     0.0225892  
C103     C      0.620840000000     0.982630000000     0.012970000000     0.0228312  
C104     C      0.640210000000     0.954720000000     0.010740000000    -0.0646147  
C105     C      0.618440000000     0.911530000000     0.026370000000     0.0225494  
C106     C      0.576780000000     0.895280000000     0.044430000000    -0.100278   
C107     C      0.557500000000     0.923160000000     0.046870000000     0.0218672  
C108     C      0.579330000000     0.966380000000     0.031400000000    -0.0646798  
C109     C      0.367590000000     0.630570000000     0.871220000000    -0.0641024  
C110     C      0.361010000000     0.609330000000     0.905260000000     0.0225972  
C111     C      0.328770000000     0.563070000000     0.908430000000    -0.0641563  
C112     C      0.303510000000     0.538710000000     0.878320000000     0.0207198  
C113     C      0.309940000000     0.560070000000     0.844410000000    -0.0974889  
C114     C      0.342320000000     0.606200000000     0.841130000000     0.0213039  
C115     C      0.387280000000     0.635500000000     0.937410000000     0.0225078  
C116     C      0.433570000000     0.667650000000     0.934150000000    -0.0640533  
C117     C      0.458040000000     0.692820000000     0.964270000000     0.0205677  
C118     C      0.436730000000     0.686380000000     0.998270000000    -0.0972696  
C119     C      0.390590000000     0.654090000000     0.001650000000     0.0211826  
C120     C      0.366120000000     0.628910000000     0.971550000000    -0.0640026  
C121     C      0.614160000000     0.381150000000     0.371250000000    -0.064052   
C122     C      0.620560000000     0.402050000000     0.405360000000     0.0225407  
C123     C      0.652690000000     0.448310000000     0.408510000000    -0.064087   
C124     C      0.678030000000     0.473010000000     0.378310000000     0.0206051  
C125     C      0.671790000000     0.451970000000     0.344330000000    -0.0972838  
C126     C      0.639510000000     0.405850000000     0.341070000000     0.0212575  
C127     C      0.594210000000     0.375540000000     0.437590000000     0.022589   
C128     C      0.547940000000     0.343380000000     0.434580000000    -0.0641449  
C129     C      0.523390000000     0.317920000000     0.464780000000     0.0207096  
C130     C      0.544570000000     0.324060000000     0.498610000000    -0.0973496  
C131     C      0.590700000000     0.356350000000     0.501730000000     0.021301   
C132     C      0.615260000000     0.381820000000     0.471550000000    -0.0640855  
C133     C      0.028970000000     0.634320000000     0.364910000000    -0.0647532  
C134     C      0.013060000000     0.659840000000     0.346680000000     0.0228477  
C135     C      0.041040000000     0.707140000000     0.344850000000    -0.064645   
C136     C      0.083990000000     0.728310000000     0.360610000000     0.0225936  
C137     C      0.099930000000     0.702650000000     0.378450000000    -0.10042    
C138     C      0.071940000000     0.655480000000     0.380540000000     0.0219497  
C139     C      0.967590000000     0.637110000000     0.329520000000     0.0228682  
C140     C      0.951700000000     0.595690000000     0.311280000000    -0.0647725  
C141     C      0.908720000000     0.573870000000     0.295660000000     0.0219675  
C142     C      0.880730000000     0.593050000000     0.297750000000    -0.100458   
C143     C      0.896650000000     0.634640000000     0.315600000000     0.0225926  
C144     C      0.939600000000     0.656410000000     0.331360000000    -0.0646395  
C145     C      0.691760000000     0.656080000000     0.177530000000    -0.0645934  
C146     C      0.644470000000     0.636750000000     0.179690000000     0.0228125  
C147     C      0.619100000000     0.595360000000     0.198190000000    -0.0646678  
C148     C      0.640390000000     0.573600000000     0.213770000000     0.0219019  
C149     C      0.687560000000     0.592810000000     0.211370000000    -0.100381   
C150     C      0.713080000000     0.634370000000     0.193250000000     0.022549   
C151     C      0.621580000000     0.659440000000     0.162600000000     0.0228689  
C152     C      0.640910000000     0.706730000000     0.164180000000    -0.0646309  
C153     C      0.619010000000     0.727870000000     0.148470000000     0.0225109  
C154     C      0.577270000000     0.702160000000     0.130950000000    -0.10023    
C155     C      0.558070000000     0.654980000000     0.129120000000     0.0218522  
C156     C      0.580010000000     0.633870000000     0.144690000000    -0.0647076  
C157     C      0.742060000000     0.382450000000     0.037930000000    -0.0640595  
C158     C      0.756870000000     0.376050000000     0.071870000000     0.0225897  
C159     C      0.770900000000     0.343830000000     0.074900000000    -0.0641618  
C160     C      0.769900000000     0.318430000000     0.044750000000     0.0207177  
C161     C      0.754840000000     0.324690000000     0.010940000000    -0.0974099  
C162     C      0.741070000000     0.357040000000     0.007790000000     0.0212669  
C163     C      0.757110000000     0.402500000000     0.104060000000     0.0225257  
C164     C      0.771270000000     0.448780000000     0.100790000000    -0.0641045  
C165     C      0.770690000000     0.473400000000     0.130950000000     0.0206402  
C166     C      0.755930000000     0.452280000000     0.165000000000    -0.0973293  
C167     C      0.742070000000     0.406150000000     0.168380000000     0.0212331  
C168     C      0.742650000000     0.381520000000     0.138240000000    -0.0640085  
H1       H      0.397970000000     0.987430000000     0.475240000000     0.0480587  
H2       H      0.360830000000     0.912140000000     0.448440000000     0.0396116  
H3       H      0.231200000000     0.890700000000     0.485370000000     0.0408599  
H4       H      0.268430000000     0.965620000000     0.513110000000     0.0483306  
H5       H      0.308120000000     0.045100000000     0.498130000000     0.0483482  
H6       H      0.346190000000     0.120020000000     0.525850000000     0.040898   
H7       H      0.454730000000     0.098490000000     0.560540000000     0.0396009  
H8       H      0.416200000000     0.023180000000     0.533770000000     0.0480236  
H9       H      0.417120000000     0.413720000000     0.642010000000     0.0480542  
H10      H      0.455370000000     0.376390000000     0.615400000000     0.0396413  
H11      H      0.346870000000     0.247010000000     0.652310000000     0.0409128  
H12      H      0.309080000000     0.284430000000     0.679890000000     0.0483163  
H13      H      0.269420000000     0.324050000000     0.664680000000     0.0483622  
H14      H      0.232410000000     0.362250000000     0.692220000000     0.0409268  
H15      H      0.362270000000     0.470980000000     0.726960000000     0.0396088  
H16      H      0.399210000000     0.432310000000     0.700380000000     0.04805    
H17      H      0.250420000000     0.666480000000     0.641380000000     0.0482592  
H18      H      0.251780000000     0.623770000000     0.694060000000     0.0420622  
H19      H      0.200100000000     0.503370000000     0.628220000000     0.0402293  
H20      H      0.197860000000     0.545840000000     0.575650000000     0.0481049  
H21      H      0.249850000000     0.605210000000     0.534560000000     0.0482624  
H22      H      0.250360000000     0.648870000000     0.481880000000     0.0421171  
H23      H      0.199040000000     0.717580000000     0.548630000000     0.0402033  
H24      H      0.197670000000     0.673270000000     0.601210000000     0.0481526  
H25      H      0.030120000000     0.324580000000     0.845790000000     0.0483677  
H26      H      0.105480000000     0.362610000000     0.818310000000     0.040916   
H27      H      0.084680000000     0.471320000000     0.782420000000     0.0396308  
H28      H      0.008940000000     0.432810000000     0.808930000000     0.0480703  
H29      H      0.972080000000     0.414420000000     0.867220000000     0.0480127  
H30      H      0.896340000000     0.377200000000     0.893730000000     0.0396471  
H31      H      0.875590000000     0.247670000000     0.857970000000     0.0409278  
H32      H      0.950950000000     0.284980000000     0.830490000000     0.0483381  
H33      H      0.657660000000     0.212630000000     0.742060000000     0.0481206  
H34      H      0.702120000000     0.214710000000     0.794560000000     0.040232   
H35      H      0.633110000000     0.266240000000     0.860780000000     0.0420704  
H36      H      0.589290000000     0.265040000000     0.808170000000     0.048257   
H37      H      0.529940000000     0.212510000000     0.767830000000     0.0481045  
H38      H      0.487300000000     0.214110000000     0.715320000000     0.0402175  
H39      H      0.607630000000     0.265470000000     0.648630000000     0.0420897  
H40      H      0.650500000000     0.264740000000     0.701230000000     0.0482818  
H41      H      0.450120000000     0.797970000000     0.267250000000     0.048138   
H42      H      0.492910000000     0.796020000000     0.214610000000     0.0402275  
H43      H      0.372800000000     0.744370000000     0.148680000000     0.0421077  
H44      H      0.329780000000     0.745460000000     0.201430000000     0.0482573  
H45      H      0.322690000000     0.798020000000     0.241900000000     0.048125   
H46      H      0.278110000000     0.796410000000     0.294560000000     0.040243   
H47      H      0.346600000000     0.744960000000     0.360900000000     0.0421392  
H48      H      0.390540000000     0.745710000000     0.308140000000     0.0482564  
H49      H      0.581760000000     0.023710000000     0.975810000000     0.0480509  
H50      H      0.618730000000     0.099310000000     0.949220000000     0.0396041  
H51      H      0.748560000000     0.120400000000     0.984030000000     0.0409152  
H52      H      0.711510000000     0.045190000000     0.011580000000     0.0483853  
H53      H      0.671850000000     0.965920000000     0.996380000000     0.0483432  
H54      H      0.634030000000     0.890710000000     0.023950000000     0.0408884  
H55      H      0.525510000000     0.911620000000     0.060780000000     0.0396388  
H56      H      0.563810000000     0.987220000000     0.034180000000     0.048039   
H57      H      0.323300000000     0.545560000000     0.934140000000     0.0481242  
H58      H      0.278880000000     0.503140000000     0.881640000000     0.040222   
H59      H      0.347930000000     0.623610000000     0.815350000000     0.0420644  
H60      H      0.391710000000     0.666270000000     0.867950000000     0.0482738  
H61      H      0.451030000000     0.673130000000     0.908360000000     0.0480963  
H62      H      0.493620000000     0.717390000000     0.960870000000     0.0402431  
H63      H      0.373220000000     0.648470000000     0.027500000000     0.0421203  
H64      H      0.330400000000     0.604850000000     0.974900000000     0.0482437  
H65      H      0.658030000000     0.465560000000     0.434280000000     0.0481185  
H66      H      0.702580000000     0.508560000000     0.381620000000     0.0402516  
H67      H      0.634040000000     0.388690000000     0.315230000000     0.0421364  
H68      H      0.590120000000     0.345460000000     0.367990000000     0.0482626  
H69      H      0.530570000000     0.338130000000     0.408930000000     0.0481332  
H70      H      0.487820000000     0.293370000000     0.461580000000     0.0402296  
H71      H      0.607980000000     0.361740000000     0.527460000000     0.042104   
H72      H      0.650960000000     0.405880000000     0.474700000000     0.0482675  
H73      H      0.030100000000     0.727780000000     0.330660000000     0.048337   
H74      H      0.104900000000     0.764740000000     0.358460000000     0.0408587  
H75      H      0.083230000000     0.634820000000     0.394260000000     0.0395832  
H76      H      0.008050000000     0.597940000000     0.367400000000     0.0480632  
H77      H      0.972620000000     0.580230000000     0.308800000000     0.0480743  
H78      H      0.897450000000     0.541940000000     0.281920000000     0.0395713  
H79      H      0.875730000000     0.650150000000     0.317750000000     0.0408566  
H80      H      0.950520000000     0.687980000000     0.345560000000     0.0483286  
H81      H      0.582720000000     0.579890000000     0.200930000000     0.0480268  
H82      H      0.619850000000     0.541690000000     0.227720000000     0.0396209  
H83      H      0.749500000000     0.649900000000     0.190860000000     0.0408727  
H84      H      0.712280000000     0.687630000000     0.163120000000     0.0483202  
H85      H      0.672590000000     0.727410000000     0.178130000000     0.0483447  
H86      H      0.634550000000     0.764300000000     0.150410000000     0.0409086  
H87      H      0.526020000000     0.634290000000     0.115640000000     0.0395989  
H88      H      0.564530000000     0.597480000000     0.142410000000     0.0480441  
H89      H      0.783040000000     0.338490000000     0.100530000000     0.0481284  
H90      H      0.780870000000     0.293830000000     0.047970000000     0.0402228  
H91      H      0.729180000000     0.362530000000     0.982090000000     0.0420812  
H92      H      0.730470000000     0.406560000000     0.034760000000     0.0482571  
H93      H      0.783160000000     0.466090000000     0.074960000000     0.0481169  
H94      H      0.781700000000     0.508970000000     0.127550000000     0.0402313  
H95      H      0.730400000000     0.388920000000     0.194270000000     0.0421378  
H96      H      0.730990000000     0.345810000000     0.141590000000     0.0482343  
In1      In     0.750090000000     0.524570000000     0.254580000000     2.39471    
In2      In     0.508630000000     0.764270000000     0.087740000000     2.39491    
In3      In     0.748930000000     0.246730000000     0.921260000000     2.39541    
In4      In     0.232100000000     0.488260000000     0.754920000000     2.3952     
In5      In     0.472180000000     0.245870000000     0.588450000000     2.39474    
In6      In     0.230580000000     0.764800000000     0.421590000000     2.39449    
O1       O      0.765800000000     0.519300000000     0.194920000000    -0.490375   
O2       O      0.741150000000     0.460360000000     0.227730000000    -0.475894   
O3       O      0.809130000000     0.585900000000     0.281690000000    -0.482091   
O4       O      0.752160000000     0.585810000000     0.227210000000    -0.481931   
O5       O      0.694850000000     0.460230000000     0.281610000000    -0.475777   
O6       O      0.687880000000     0.530270000000     0.241100000000    -0.496302   
O7       O      0.818020000000     0.530420000000     0.268220000000    -0.496494   
O8       O      0.728990000000     0.519100000000     0.314250000000    -0.490223   
O9       O      0.503600000000     0.743510000000     0.028140000000    -0.490496   
O10      O      0.444520000000     0.709060000000     0.060940000000    -0.475953   
O11      O      0.570100000000     0.766580000000     0.114600000000    -0.481963   
O12      O      0.569890000000     0.823660000000     0.060340000000    -0.481814   
O13      O      0.444280000000     0.755020000000     0.114910000000    -0.475958   
O14      O      0.514130000000     0.832100000000     0.074060000000    -0.496272   
O15      O      0.514430000000     0.702170000000     0.101730000000    -0.496249   
O16      O      0.503250000000     0.779890000000     0.147350000000    -0.490357   
O17      O      0.728270000000     0.231050000000     0.861710000000    -0.490662   
O18      O      0.693790000000     0.255700000000     0.894340000000    -0.476093   
O19      O      0.751070000000     0.187390000000     0.948170000000    -0.481792   
O20      O      0.808420000000     0.244840000000     0.894100000000    -0.48173    
O21      O      0.739760000000     0.301790000000     0.948360000000    -0.476087   
O22      O      0.816740000000     0.309070000000     0.907230000000    -0.496229   
O23      O      0.686720000000     0.178880000000     0.935430000000    -0.496345   
O24      O      0.764550000000     0.267510000000     0.980810000000    -0.490764   
O25      O      0.252750000000     0.493280000000     0.814480000000    -0.490652   
O26      O      0.287260000000     0.552370000000     0.781820000000    -0.47615    
O27      O      0.229940000000     0.426760000000     0.728040000000    -0.481848   
O28      O      0.172630000000     0.426910000000     0.782130000000    -0.481585   
O29      O      0.241250000000     0.552480000000     0.727800000000    -0.476141   
O30      O      0.164280000000     0.482790000000     0.768930000000    -0.49615    
O31      O      0.294300000000     0.482590000000     0.740760000000    -0.496297   
O32      O      0.216470000000     0.493410000000     0.695370000000    -0.490793   
O33      O      0.477260000000     0.230170000000     0.648050000000    -0.490626   
O34      O      0.536300000000     0.254750000000     0.615220000000    -0.476079   
O35      O      0.410680000000     0.186740000000     0.561620000000    -0.481841   
O36      O      0.410950000000     0.244040000000     0.615890000000    -0.481591   
O37      O      0.536530000000     0.300950000000     0.561250000000    -0.475802   
O38      O      0.466710000000     0.308230000000     0.602120000000    -0.49608    
O39      O      0.466350000000     0.177970000000     0.574460000000    -0.496297   
O40      O      0.477530000000     0.266880000000     0.528840000000    -0.490347   
O41      O      0.214900000000     0.743810000000     0.481250000000    -0.490471   
O42      O      0.239550000000     0.709530000000     0.448440000000    -0.47583    
O43      O      0.171520000000     0.767100000000     0.394500000000    -0.481959   
O44      O      0.228510000000     0.823950000000     0.448980000000    -0.481841   
O45      O      0.285800000000     0.755680000000     0.394540000000    -0.475597   
O46      O      0.292790000000     0.832700000000     0.435060000000    -0.496281   
O47      O      0.162640000000     0.702720000000     0.407960000000    -0.49637    
O48      O      0.251680000000     0.780480000000     0.361930000000    -0.490184   


