data_structure

_audit_creation_method RASPA-1.0
_audit_creation_date 2023-6-5
_audit_author_name 'Poobodin Mano'

_cell_length_a    44.9702
_cell_length_b    44.9233
_cell_length_c    23.7914
_cell_angle_alpha 89.6967
_cell_angle_beta  90.3034
_cell_angle_gamma 89.9995
_cell_volume      48062.3

_symmetry_cell_setting          triclinic
_symmetry_space_group_name_Hall 'P 1'
_symmetry_space_group_name_H-M  'P 1'
_symmetry_Int_Tables_number     1

_symmetry_equiv_pos_as_xyz 'x,y,z'

loop_
_atom_site_label
_atom_site_type_symbol
_atom_site_fract_x
_atom_site_fract_y
_atom_site_fract_z
_atom_site_charge
C1       C      0.309410000000     0.376780000000     0.002400000000     0.358502   
C2       C      0.295680000000     0.288580000000     0.898790000000     0.357604   
C3       C      0.376390000000     0.309330000000     0.977140000000     0.357832   
C4       C      0.288220000000     0.296090000000     0.080740000000     0.35786    
C5       C      0.312240000000     0.601030000000     0.996140000000     0.357616   
C6       C      0.291100000000     0.689550000000     0.078790000000     0.358698   
C7       C      0.377510000000     0.665110000000     0.991010000000     0.35738    
C8       C      0.289320000000     0.687670000000     0.905320000000     0.356593   
C9       C      0.600390000000     0.311410000000     0.983960000000     0.357545   
C10      C      0.688970000000     0.290190000000     0.901750000000     0.358243   
C11      C      0.664380000000     0.376760000000     0.988950000000     0.357088   
C12      C      0.686910000000     0.288620000000     0.075180000000     0.35621    
C13      C      0.665940000000     0.601430000000     0.992230000000     0.358588   
C14      C      0.687290000000     0.689820000000     0.901320000000     0.359019   
C15      C      0.601930000000     0.665870000000     0.986670000000     0.358718   
C16      C      0.690420000000     0.686820000000     0.077230000000     0.359318   
C17      C      0.811720000000     0.100530000000     0.494640000000     0.357749   
C18      C      0.790310000000     0.189120000000     0.576840000000     0.35832    
C19      C      0.876860000000     0.164740000000     0.489630000000     0.35734    
C20      C      0.788740000000     0.187050000000     0.403390000000     0.356456   
C21      C      0.877030000000     0.809010000000     0.477080000000     0.357738   
C22      C      0.788800000000     0.795590000000     0.580240000000     0.357613   
C23      C      0.809730000000     0.876290000000     0.501770000000     0.35806    
C24      C      0.796480000000     0.788040000000     0.398270000000     0.358195   
C25      C      0.101010000000     0.811720000000     0.485340000000     0.35764    
C26      C      0.189690000000     0.790590000000     0.403640000000     0.358352   
C27      C      0.164810000000     0.877210000000     0.490480000000     0.357387   
C28      C      0.187470000000     0.789180000000     0.577050000000     0.356673   
C29      C      0.101300000000     0.166120000000     0.486670000000     0.358549   
C30      C      0.189690000000     0.187320000000     0.577700000000     0.358731   
C31      C      0.165460000000     0.101900000000     0.492820000000     0.358753   
C32      C      0.186680000000     0.190330000000     0.401790000000     0.359045   
C33      C      0.166390000000     0.957490000000     0.441440000000    -0.0642426  
C34      C      0.167970000000     0.972960000000     0.492670000000     0.0228088  
C35      C      0.169020000000     0.956470000000     0.543110000000    -0.0643112  
C36      C      0.168090000000     0.925380000000     0.542350000000     0.0218915  
C37      C      0.166380000000     0.910050000000     0.491160000000    -0.0990588  
C38      C      0.165740000000     0.926390000000     0.440700000000     0.0217616  
C39      C      0.168020000000     0.006120000000     0.493510000000     0.0228174  
C40      C      0.183090000000     0.022530000000     0.451920000000    -0.0640407  
C41      C      0.182390000000     0.053640000000     0.451860000000     0.021886   
C42      C      0.166860000000     0.069050000000     0.493690000000    -0.098085   
C43      C      0.152170000000     0.052780000000     0.535720000000     0.0220004  
C44      C      0.152610000000     0.021670000000     0.535500000000    -0.0642817  
C45      C      0.957080000000     0.825370000000     0.439950000000    -0.0644553  
C46      C      0.972560000000     0.805240000000     0.474870000000     0.0227633  
C47      C      0.956210000000     0.785340000000     0.508480000000    -0.0642453  
C48      C      0.925130000000     0.786010000000     0.508120000000     0.0217188  
C49      C      0.909750000000     0.806600000000     0.474140000000    -0.0989212  
C50      C      0.926020000000     0.826020000000     0.439570000000     0.0218118  
C51      C      0.005600000000     0.805700000000     0.477350000000     0.0228143  
C52      C      0.022350000000     0.809840000000     0.428200000000    -0.0645829  
C53      C      0.053350000000     0.811550000000     0.430840000000     0.0219172  
C54      C      0.068290000000     0.809110000000     0.482660000000    -0.0991641  
C55      C      0.051660000000     0.804550000000     0.531740000000     0.0216177  
C56      C      0.020630000000     0.802880000000     0.529130000000    -0.0642976  
C57      C      0.785830000000     0.955530000000     0.470890000000    -0.0642467  
C58      C      0.805740000000     0.971910000000     0.504430000000     0.0227476  
C59      C      0.825970000000     0.956410000000     0.539110000000    -0.0644586  
C60      C      0.826700000000     0.925320000000     0.539330000000     0.0218739  
C61      C      0.807260000000     0.909030000000     0.504840000000    -0.099117   
C62      C      0.786580000000     0.924420000000     0.471090000000     0.021781   
C63      C      0.806090000000     0.004980000000     0.502130000000     0.0227883  
C64      C      0.803090000000     0.020110000000     0.450470000000    -0.0642477  
C65      C      0.804630000000     0.051170000000     0.448020000000     0.0216179  
C66      C      0.809260000000     0.067760000000     0.497160000000    -0.0991903  
C67      C      0.811880000000     0.052720000000     0.548870000000     0.02196    
C68      C      0.810300000000     0.021690000000     0.551340000000    -0.0646025  
C69      C      0.957090000000     0.166700000000     0.538410000000    -0.0642477  
C70      C      0.972490000000     0.168330000000     0.487120000000     0.0228336  
C71      C      0.955970000000     0.169300000000     0.436740000000    -0.0643275  
C72      C      0.924910000000     0.168230000000     0.437600000000     0.0218995  
C73      C      0.909650000000     0.166460000000     0.488840000000    -0.0991063  
C74      C      0.926020000000     0.165930000000     0.539250000000     0.0217509  
C75      C      0.005610000000     0.168490000000     0.486180000000     0.0227636  
C76      C      0.022000000000     0.183630000000     0.527700000000    -0.0639736  
C77      C      0.053080000000     0.183010000000     0.527680000000     0.021839   
C78      C      0.068480000000     0.167490000000     0.485840000000    -0.0980113  
C79      C      0.052230000000     0.152730000000     0.443860000000     0.0219334  
C80      C      0.021160000000     0.153100000000     0.444160000000    -0.0642234  
C81      C      0.701110000000     0.745210000000     0.783720000000    -0.0647168  
C82      C      0.729600000000     0.736840000000     0.765510000000     0.0229776  
C83      C      0.743820000000     0.712620000000     0.792020000000    -0.0647239  
C84      C      0.729990000000     0.697290000000     0.835920000000     0.0222083  
C85      C      0.701610000000     0.705770000000     0.854220000000    -0.100369   
C86      C      0.687260000000     0.729820000000     0.827620000000     0.0220493  
C87      C      0.744470000000     0.753140000000     0.718920000000     0.022671   
C88      C      0.728290000000     0.762350000000     0.671150000000    -0.0642546  
C89      C      0.742560000000     0.776690000000     0.626500000000     0.0216086  
C90      C      0.773310000000     0.782080000000     0.628680000000    -0.0990551  
C91      C      0.789410000000     0.773400000000     0.676780000000     0.0218166  
C92      C      0.775140000000     0.759130000000     0.721430000000    -0.0642959  
C93      C      0.713550000000     0.743350000000     0.186350000000    -0.0646368  
C94      C      0.737670000000     0.729000000000     0.212890000000     0.0229268  
C95      C      0.745880000000     0.700420000000     0.194720000000    -0.064703   
C96      C      0.730420000000     0.686620000000     0.150860000000     0.0220905  
C97      C      0.706460000000     0.701100000000     0.124250000000    -0.100445   
C98      C      0.698150000000     0.729570000000     0.142490000000     0.0222249  
C99      C      0.754030000000     0.743810000000     0.259470000000     0.0227749  
C100     C      0.760170000000     0.774480000000     0.256940000000    -0.0644191  
C101     C      0.774450000000     0.788710000000     0.301610000000     0.0220224  
C102     C      0.783000000000     0.772580000000     0.349760000000    -0.0993189  
C103     C      0.777480000000     0.741820000000     0.351950000000     0.021712   
C104     C      0.763110000000     0.727580000000     0.307280000000    -0.0643388  
C105     C      0.741990000000     0.202850000000     0.703650000000    -0.0644621  
C106     C      0.747960000000     0.232920000000     0.715500000000     0.0228624  
C107     C      0.768250000000     0.248430000000     0.681330000000    -0.0642549  
C108     C      0.782130000000     0.234220000000     0.636340000000     0.0217722  
C109     C      0.775880000000     0.204270000000     0.624410000000    -0.0991701  
C110     C      0.755690000000     0.188750000000     0.658520000000     0.022303   
C111     C      0.732880000000     0.247960000000     0.763090000000     0.0228996  
C112     C      0.702900000000     0.241790000000     0.775060000000    -0.0644813  
C113     C      0.688750000000     0.255460000000     0.820190000000     0.0222501  
C114     C      0.704160000000     0.275800000000     0.854180000000    -0.0991669  
C115     C      0.734020000000     0.282240000000     0.842150000000     0.0218053  
C116     C      0.748270000000     0.268400000000     0.797150000000    -0.0642836  
C117     C      0.709310000000     0.229360000000     0.181150000000    -0.0640518  
C118     C      0.729720000000     0.244840000000     0.215210000000     0.0227319  
C119     C      0.735700000000     0.274890000000     0.202770000000    -0.0641523  
C120     C      0.721830000000     0.289030000000     0.157240000000     0.0216183  
C121     C      0.701490000000     0.273530000000     0.123290000000    -0.098184   
C122     C      0.695290000000     0.243590000000     0.135770000000     0.0213422  
C123     C      0.744850000000     0.229750000000     0.263350000000     0.022715   
C124     C      0.729440000000     0.209310000000     0.297500000000    -0.0640732  
C125     C      0.743700000000     0.195330000000     0.342880000000     0.0213401  
C126     C      0.773610000000     0.201600000000     0.355270000000    -0.0981813  
C127     C      0.789050000000     0.221950000000     0.321240000000     0.0216048  
C128     C      0.774870000000     0.235790000000     0.275710000000    -0.0641452  
C129     C      0.666220000000     0.457090000000     0.940230000000    -0.0642413  
C130     C      0.667930000000     0.472490000000     0.991520000000     0.0226646  
C131     C      0.668980000000     0.455940000000     0.041880000000    -0.0641186  
C132     C      0.667900000000     0.424850000000     0.041000000000     0.0219921  
C133     C      0.666070000000     0.409590000000     0.989750000000    -0.0991525  
C134     C      0.665440000000     0.425990000000     0.939360000000     0.0217334  
C135     C      0.668130000000     0.505640000000     0.992500000000     0.022665   
C136     C      0.683220000000     0.522040000000     0.950930000000    -0.0640833  
C137     C      0.682660000000     0.553150000000     0.951020000000     0.0219479  
C138     C      0.667240000000     0.568580000000     0.992960000000    -0.0982926  
C139     C      0.652510000000     0.552320000000     0.034980000000     0.0221032  
C140     C      0.652830000000     0.521210000000     0.034620000000    -0.0640789  
C141     C      0.236250000000     0.775550000000     0.704700000000    -0.0641916  
C142     C      0.230250000000     0.745500000000     0.717250000000     0.0227038  
C143     C      0.209820000000     0.730010000000     0.683250000000    -0.0640644  
C144     C      0.195810000000     0.744200000000     0.637830000000     0.0213496  
C145     C      0.202040000000     0.774130000000     0.625230000000    -0.0983021  
C146     C      0.222390000000     0.789650000000     0.659130000000     0.0216505  
C147     C      0.245380000000     0.730440000000     0.765410000000     0.0227024  
C148     C      0.275420000000     0.736450000000     0.777700000000    -0.0641532  
C149     C      0.289610000000     0.722610000000     0.823210000000     0.0215886  
C150     C      0.274170000000     0.702270000000     0.857270000000    -0.0981775  
C151     C      0.244240000000     0.696040000000     0.844960000000     0.0213073  
C152     C      0.229970000000     0.710030000000     0.799610000000    -0.064068   
C153     C      0.269050000000     0.748830000000     0.183330000000    -0.0642459  
C154     C      0.248840000000     0.733290000000     0.217600000000     0.0229308  
C155     C      0.242950000000     0.703200000000     0.205850000000    -0.0645339  
C156     C      0.256630000000     0.689110000000     0.160690000000     0.0224002  
C157     C      0.276730000000     0.704670000000     0.126450000000    -0.099362   
C158     C      0.282920000000     0.734640000000     0.138300000000     0.0218694  
C159     C      0.233730000000     0.748330000000     0.265160000000     0.0228688  
C160     C      0.249060000000     0.768860000000     0.299120000000    -0.0642573  
C161     C      0.234770000000     0.782710000000     0.344070000000     0.0217903  
C162     C      0.204930000000     0.776180000000     0.356150000000    -0.0991811  
C163     C      0.189590000000     0.755750000000     0.322260000000     0.022284   
C164     C      0.203770000000     0.742080000000     0.277180000000    -0.0644365  
C165     C      0.456530000000     0.669480000000     0.937660000000    -0.0643217  
C166     C      0.473140000000     0.668470000000     0.987940000000     0.0226797  
C167     C      0.457830000000     0.666890000000     0.039320000000    -0.0641289  
C168     C      0.426750000000     0.666200000000     0.040350000000     0.0219412  
C169     C      0.410300000000     0.666770000000     0.990040000000    -0.0993567  
C170     C      0.425480000000     0.668490000000     0.938710000000     0.021985   
C171     C      0.506260000000     0.668530000000     0.986790000000     0.0226917  
C172     C      0.521690000000     0.653070000000     0.944680000000    -0.0642943  
C173     C      0.552750000000     0.652610000000     0.944180000000     0.0220381  
C174     C      0.569120000000     0.667330000000     0.986060000000    -0.0983884  
C175     C      0.553840000000     0.682910000000     0.027980000000     0.0221466  
C176     C      0.522760000000     0.683630000000     0.028200000000    -0.063992   
C177     C      0.259090000000     0.275100000000     0.757690000000    -0.0643923  
C178     C      0.253120000000     0.244390000000     0.760070000000     0.0227036  
C179     C      0.262380000000     0.228120000000     0.807730000000    -0.064298   
C180     C      0.276760000000     0.242360000000     0.852380000000     0.0216209  
C181     C      0.282130000000     0.273150000000     0.850330000000    -0.0991674  
C182     C      0.273390000000     0.289320000000     0.802350000000     0.021929   
C183     C      0.236800000000     0.229550000000     0.713470000000     0.0229527  
C184     C      0.212570000000     0.243800000000     0.687110000000    -0.0646812  
C185     C      0.197210000000     0.230000000000     0.643220000000     0.0221557  
C186     C      0.205680000000     0.201620000000     0.624760000000    -0.100311   
C187     C      0.229750000000     0.187240000000     0.651200000000     0.022018   
C188     C      0.245160000000     0.201060000000     0.695090000000    -0.0647012  
C189     C      0.274590000000     0.259540000000     0.221850000000    -0.0643642  
C190     C      0.243890000000     0.253680000000     0.219460000000     0.0227387  
C191     C      0.227680000000     0.263010000000     0.171800000000    -0.0643238  
C192     C      0.241960000000     0.277350000000     0.127150000000     0.0216881  
C193     C      0.272740000000     0.282600000000     0.129200000000    -0.0992194  
C194     C      0.288860000000     0.273800000000     0.177200000000     0.0219323  
C195     C      0.229010000000     0.237380000000     0.266040000000     0.022927   
C196     C      0.243160000000     0.213070000000     0.292370000000    -0.0646127  
C197     C      0.229330000000     0.197730000000     0.336250000000     0.0221589  
C198     C      0.201010000000     0.206300000000     0.354730000000    -0.100329   
C199     C      0.186720000000     0.230450000000     0.328310000000     0.021995   
C200     C      0.200580000000     0.245850000000     0.284430000000    -0.0646583  
C201     C      0.455560000000     0.285420000000     0.007970000000    -0.0641716  
C202     C      0.471900000000     0.305300000000     0.974280000000     0.0226724  
C203     C      0.456410000000     0.325480000000     0.939490000000    -0.0645191  
C204     C      0.425360000000     0.326220000000     0.939320000000     0.0218922  
C205     C      0.409100000000     0.306840000000     0.973980000000    -0.0991703  
C206     C      0.424480000000     0.286190000000     0.007820000000     0.0219608  
C207     C      0.504950000000     0.305660000000     0.976550000000     0.0226156  
C208     C      0.520070000000     0.302760000000     0.028220000000    -0.0641013  
C209     C      0.551100000000     0.304330000000     0.030630000000     0.0217944  
C210     C      0.567660000000     0.308890000000     0.981460000000    -0.0993673  
C211     C      0.552630000000     0.311410000000     0.929740000000     0.0219458  
C212     C      0.521630000000     0.309790000000     0.927300000000    -0.0645543  
C213     C      0.285800000000     0.456160000000     0.971940000000    -0.0645012  
C214     C      0.305830000000     0.472410000000     0.005430000000     0.0229785  
C215     C      0.326040000000     0.456800000000     0.039940000000    -0.0645238  
C216     C      0.326640000000     0.425710000000     0.040050000000     0.0219416  
C217     C      0.307090000000     0.409530000000     0.005590000000    -0.0990895  
C218     C      0.286430000000     0.425040000000     0.972010000000     0.0217301  
C219     C      0.306300000000     0.505490000000     0.003260000000     0.0229848  
C220     C      0.303260000000     0.520690000000     0.951680000000    -0.0645229  
C221     C      0.304910000000     0.551750000000     0.949360000000     0.0217385  
C222     C      0.309680000000     0.568260000000     0.998540000000    -0.0993705  
C223     C      0.312360000000     0.553160000000     0.050170000000     0.0221947  
C224     C      0.310670000000     0.522130000000     0.052520000000    -0.064673   
H1       H      0.170780000000     0.967550000000     0.583290000000     0.0482102  
H2       H      0.168800000000     0.913340000000     0.581920000000     0.0408554  
H3       H      0.164270000000     0.915150000000     0.400600000000     0.0401654  
H4       H      0.165050000000     0.969390000000     0.401810000000     0.0481104  
H5       H      0.195610000000     0.011360000000     0.419490000000     0.04829    
H6       H      0.194070000000     0.065620000000     0.419080000000     0.041147   
H7       H      0.139860000000     0.064060000000     0.568330000000     0.0398034  
H8       H      0.140340000000     0.009850000000     0.567670000000     0.0479563  
H9       H      0.967450000000     0.769270000000     0.535230000000     0.0484307  
H10      H      0.913170000000     0.770720000000     0.535140000000     0.0414985  
H11      H      0.914780000000     0.842220000000     0.413090000000     0.0401684  
H12      H      0.968950000000     0.841250000000     0.414040000000     0.0481377  
H13      H      0.011510000000     0.811680000000     0.387570000000     0.0481786  
H14      H      0.065590000000     0.814910000000     0.392230000000     0.041129   
H15      H      0.062580000000     0.802640000000     0.572290000000     0.040425   
H16      H      0.008400000000     0.800070000000     0.567880000000     0.0484641  
H17      H      0.841860000000     0.968310000000     0.564940000000     0.0481221  
H18      H      0.842970000000     0.914080000000     0.565630000000     0.0401324  
H19      H      0.771280000000     0.912440000000     0.444150000000     0.0414727  
H20      H      0.769680000000     0.966770000000     0.444330000000     0.0484308  
H21      H      0.800220000000     0.007910000000     0.411670000000     0.0484445  
H22      H      0.802570000000     0.062160000000     0.407550000000     0.0404304  
H23      H      0.815300000000     0.064930000000     0.587520000000     0.0411008  
H24      H      0.812280000000     0.010780000000     0.591890000000     0.0481662  
H25      H      0.966990000000     0.171080000000     0.396520000000     0.0482308  
H26      H      0.912860000000     0.168870000000     0.398070000000     0.0408702  
H27      H      0.914840000000     0.164420000000     0.579380000000     0.0401423  
H28      H      0.969020000000     0.165430000000     0.578000000000     0.0481034  
H29      H      0.010830000000     0.196150000000     0.560150000000     0.0482458  
H30      H      0.065040000000     0.194740000000     0.560420000000     0.0411319  
H31      H      0.063520000000     0.140420000000     0.411250000000     0.0398297  
H32      H      0.009360000000     0.140770000000     0.412040000000     0.0479478  
H33      H      0.765540000000     0.705260000000     0.778430000000     0.0485918  
H34      H      0.741560000000     0.678760000000     0.855490000000     0.0408865  
H35      H      0.665400000000     0.736920000000     0.840980000000     0.0400912  
H36      H      0.689680000000     0.763950000000     0.764630000000     0.048196   
H37      H      0.704700000000     0.757810000000     0.667600000000     0.048273   
H38      H      0.729600000000     0.783060000000     0.589860000000     0.0399375  
H39      H      0.813120000000     0.777380000000     0.679770000000     0.0415906  
H40      H      0.788180000000     0.752810000000     0.758000000000     0.0482009  
H41      H      0.764530000000     0.688880000000     0.213830000000     0.0482215  
H42      H      0.737380000000     0.664690000000     0.137550000000     0.040121   
H43      H      0.679710000000     0.741250000000     0.122920000000     0.0409169  
H44      H      0.706320000000     0.765150000000     0.199900000000     0.0485743  
H45      H      0.753950000000     0.787550000000     0.220340000000     0.0482643  
H46      H      0.778540000000     0.812430000000     0.298620000000     0.0415481  
H47      H      0.783730000000     0.728830000000     0.388630000000     0.039902   
H48      H      0.758470000000     0.703990000000     0.310850000000     0.04831    
H49      H      0.773100000000     0.271690000000     0.688780000000     0.0482686  
H50      H      0.797560000000     0.246750000000     0.610630000000     0.0398567  
H51      H      0.750590000000     0.165570000000     0.650600000000     0.0413065  
H52      H      0.726920000000     0.190050000000     0.729640000000     0.0482756  
H53      H      0.690180000000     0.226610000000     0.749170000000     0.0482958  
H54      H      0.665640000000     0.250210000000     0.828200000000     0.0412972  
H55      H      0.746470000000     0.297790000000     0.867760000000     0.0398373  
H56      H      0.771470000000     0.273390000000     0.789620000000     0.0482677  
H57      H      0.750880000000     0.287670000000     0.228610000000     0.0481971  
H58      H      0.726930000000     0.312200000000     0.148860000000     0.0413584  
H59      H      0.679770000000     0.231050000000     0.110200000000     0.0401993  
H60      H      0.704460000000     0.206100000000     0.188990000000     0.048197   
H61      H      0.706210000000     0.204430000000     0.289720000000     0.0482067  
H62      H      0.731210000000     0.179800000000     0.368520000000     0.0401775  
H63      H      0.812190000000     0.227100000000     0.329550000000     0.041335   
H64      H      0.787600000000     0.250980000000     0.249800000000     0.0482015  
H65      H      0.670820000000     0.466960000000     0.082110000000     0.0482002  
H66      H      0.668610000000     0.412770000000     0.080510000000     0.0408912  
H67      H      0.663880000000     0.414810000000     0.899220000000     0.0401417  
H68      H      0.664890000000     0.469040000000     0.900660000000     0.048104   
H69      H      0.695660000000     0.510870000000     0.918400000000     0.0482886  
H70      H      0.694350000000     0.565130000000     0.918240000000     0.0410883  
H71      H      0.640290000000     0.563610000000     0.067680000000     0.0398225  
H72      H      0.640540000000     0.509400000000     0.066780000000     0.0479428  
H73      H      0.204960000000     0.706760000000     0.691170000000     0.0481854  
H74      H      0.180280000000     0.731650000000     0.612310000000     0.0401824  
H75      H      0.227510000000     0.812800000000     0.650660000000     0.0412959  
H76      H      0.251450000000     0.788330000000     0.730480000000     0.0481933  
H77      H      0.288140000000     0.751630000000     0.751760000000     0.0481894  
H78      H      0.312760000000     0.727720000000     0.831460000000     0.0413244  
H79      H      0.231760000000     0.680520000000     0.870630000000     0.0401755  
H80      H      0.206730000000     0.705170000000     0.791880000000     0.0481857  
H81      H      0.227950000000     0.690370000000     0.231920000000     0.0483172  
H82      H      0.251580000000     0.665920000000     0.152830000000     0.0412968  
H83      H      0.298280000000     0.747210000000     0.112490000000     0.0398338  
H84      H      0.273840000000     0.772120000000     0.190700000000     0.0482623  
H85      H      0.272240000000     0.773920000000     0.291550000000     0.0482785  
H86      H      0.247170000000     0.798330000000     0.369610000000     0.0398606  
H87      H      0.166500000000     0.750440000000     0.330300000000     0.0413333  
H88      H      0.191100000000     0.726820000000     0.251350000000     0.048293   
H89      H      0.469810000000     0.665590000000     0.078840000000     0.0481242  
H90      H      0.415640000000     0.664730000000     0.080550000000     0.0401155  
H91      H      0.413360000000     0.669160000000     0.899240000000     0.040836   
H92      H      0.467500000000     0.671230000000     0.897370000000     0.0481935  
H93      H      0.509790000000     0.640780000000     0.912640000000     0.0479503  
H94      H      0.563940000000     0.640270000000     0.911510000000     0.0397954  
H95      H      0.565900000000     0.694610000000     0.060640000000     0.0410734  
H96      H      0.511700000000     0.696180000000     0.060700000000     0.0483263  
H97      H      0.257870000000     0.204500000000     0.811180000000     0.0482777  
H98      H      0.283160000000     0.229340000000     0.888930000000     0.0398975  
H99      H      0.277350000000     0.313060000000     0.799470000000     0.0415679  
H100     H      0.252730000000     0.288190000000     0.721210000000     0.0482524  
H101     H      0.205210000000     0.265520000000     0.700820000000     0.0485801  
H102     H      0.178670000000     0.241590000000     0.623780000000     0.0409086  
H103     H      0.236840000000     0.165380000000     0.637720000000     0.0401106  
H104     H      0.263910000000     0.189610000000     0.714050000000     0.0481967  
H105     H      0.204070000000     0.258590000000     0.168340000000     0.0483237  
H106     H      0.228980000000     0.283810000000     0.090590000000     0.0399283  
H107     H      0.312590000000     0.277670000000     0.180090000000     0.0415857  
H108     H      0.287640000000     0.253120000000     0.258340000000     0.0482457  
H109     H      0.264840000000     0.205630000000     0.278640000000     0.0485579  
H110     H      0.240850000000     0.179130000000     0.355670000000     0.0409414  
H111     H      0.164910000000     0.237620000000     0.341810000000     0.0401162  
H112     H      0.189200000000     0.264660000000     0.265480000000     0.0481971  
H113     H      0.468280000000     0.341340000000     0.913540000000     0.0481324  
H114     H      0.414110000000     0.342460000000     0.912950000000     0.040118   
H115     H      0.412530000000     0.270920000000     0.034900000000     0.0414817  
H116     H      0.466800000000     0.269310000000     0.034610000000     0.048468   
H117     H      0.507890000000     0.299940000000     0.067040000000     0.0484339  
H118     H      0.562090000000     0.302350000000     0.071110000000     0.0404104  
H119     H      0.564810000000     0.314780000000     0.891060000000     0.0410865  
H120     H      0.510720000000     0.311700000000     0.886740000000     0.0481415  
H121     H      0.342020000000     0.468600000000     0.065740000000     0.048155   
H122     H      0.342900000000     0.414370000000     0.066220000000     0.0401391  
H123     H      0.271030000000     0.413150000000     0.945100000000     0.0414471  
H124     H      0.269660000000     0.467490000000     0.945510000000     0.0484652  
H125     H      0.300270000000     0.508550000000     0.912850000000     0.0484808  
H126     H      0.302800000000     0.562790000000     0.908950000000     0.0403908  
H127     H      0.315890000000     0.565300000000     0.088850000000     0.0410626  
H128     H      0.312690000000     0.511160000000     0.093010000000     0.0481974  
In1      In     0.317210000000     0.317490000000     0.989760000000     2.39972    
In2      In     0.317510000000     0.660990000000     0.992680000000     2.39961    
In3      In     0.660290000000     0.316700000000     0.987600000000     2.39941    
In4      In     0.661800000000     0.661380000000     0.989360000000     2.40098    
In5      In     0.816870000000     0.160500000000     0.490980000000     2.40005    
In6      In     0.817810000000     0.817020000000     0.489320000000     2.40016    
In7      In     0.160890000000     0.817140000000     0.489300000000     2.40009    
In8      In     0.161170000000     0.161830000000     0.489740000000     2.40108    
O1       O      0.274830000000     0.304570000000     0.036790000000    -0.492449   
O2       O      0.316090000000     0.298860000000     0.079090000000    -0.482938   
O3       O      0.298580000000     0.316470000000     0.900440000000    -0.482959   
O4       O      0.293830000000     0.361440000000     0.969220000000    -0.480823   
O5       O      0.360990000000     0.293890000000     0.010460000000    -0.480256   
O6       O      0.328390000000     0.362120000000     0.030180000000    -0.493362   
O7       O      0.304090000000     0.275130000000     0.942740000000    -0.492569   
O8       O      0.361850000000     0.328350000000     0.949210000000    -0.493159   
O9       O      0.277400000000     0.667360000000     0.934270000000    -0.486525   
O10      O      0.315330000000     0.694520000000     0.920510000000    -0.486556   
O11      O      0.284040000000     0.663600000000     0.063930000000    -0.488858   
O12      O      0.317780000000     0.616460000000     0.039000000000    -0.487572   
O13      O      0.362690000000     0.667020000000     0.035700000000    -0.486706   
O14      O      0.309340000000     0.615810000000     0.951210000000    -0.48587    
O15      O      0.311470000000     0.701330000000     0.050000000000    -0.487147   
O16      O      0.362100000000     0.661270000000     0.947240000000    -0.486795   
O17      O      0.666610000000     0.276640000000     0.046290000000    -0.486039   
O18      O      0.693760000000     0.314630000000     0.059810000000    -0.486325   
O19      O      0.663100000000     0.282980000000     0.916720000000    -0.488696   
O20      O      0.615860000000     0.316770000000     0.941080000000    -0.487671   
O21      O      0.660630000000     0.361390000000     0.032830000000    -0.486435   
O22      O      0.615100000000     0.308690000000     0.028990000000    -0.48575    
O23      O      0.700610000000     0.310750000000     0.930310000000    -0.487067   
O24      O      0.666190000000     0.361860000000     0.944320000000    -0.486861   
O25      O      0.696580000000     0.661100000000     0.059940000000    -0.489968   
O26      O      0.669710000000     0.699580000000     0.050590000000    -0.48794    
O27      O      0.661640000000     0.696140000000     0.918660000000    -0.489867   
O28      O      0.674940000000     0.616810000000     0.951160000000    -0.483431   
O29      O      0.617390000000     0.674830000000     0.027640000000    -0.483397   
O30      O      0.655130000000     0.616300000000     0.032070000000    -0.489672   
O31      O      0.699950000000     0.669040000000     0.927980000000    -0.487925   
O32      O      0.616680000000     0.654900000000     0.946830000000    -0.489718   
O33      O      0.776820000000     0.166740000000     0.432350000000    -0.486386   
O34      O      0.814720000000     0.193960000000     0.418690000000    -0.486474   
O35      O      0.783240000000     0.163170000000     0.561970000000    -0.488722   
O36      O      0.817110000000     0.116020000000     0.537490000000    -0.487743   
O37      O      0.861520000000     0.160870000000     0.445760000000    -0.486645   
O38      O      0.808910000000     0.115250000000     0.449620000000    -0.485946   
O39      O      0.810750000000     0.200870000000     0.548180000000    -0.487182   
O40      O      0.861960000000     0.166600000000     0.534230000000    -0.487092   
O41      O      0.804730000000     0.774630000000     0.442360000000    -0.492702   
O42      O      0.799460000000     0.815910000000     0.399800000000    -0.483335   
O43      O      0.816660000000     0.798490000000     0.578710000000    -0.483067   
O44      O      0.861600000000     0.793500000000     0.510250000000    -0.480472   
O45      O      0.794230000000     0.860850000000     0.468610000000    -0.480534   
O46      O      0.862490000000     0.828010000000     0.449090000000    -0.493176   
O47      O      0.775420000000     0.803960000000     0.536200000000    -0.492308   
O48      O      0.828770000000     0.861740000000     0.529620000000    -0.493246   
O49      O      0.167170000000     0.777170000000     0.548210000000    -0.486364   
O50      O      0.194340000000     0.815150000000     0.561560000000    -0.486804   
O51      O      0.163840000000     0.783330000000     0.418610000000    -0.488844   
O52      O      0.116540000000     0.817050000000     0.442530000000    -0.48775    
O53      O      0.161050000000     0.861870000000     0.534390000000    -0.486867   
O54      O      0.115650000000     0.809100000000     0.530480000000    -0.485833   
O55      O      0.201260000000     0.811230000000     0.432100000000    -0.48697    
O56      O      0.166730000000     0.862280000000     0.445910000000    -0.486975   
O57      O      0.161080000000     0.196730000000     0.419280000000    -0.489947   
O58      O      0.199290000000     0.169460000000     0.428260000000    -0.487744   
O59      O      0.168870000000     0.199990000000     0.551200000000    -0.487553   
O60      O      0.116650000000     0.175130000000     0.527760000000    -0.4834     
O61      O      0.174430000000     0.117260000000     0.451720000000    -0.483486   
O62      O      0.116160000000     0.155220000000     0.446910000000    -0.489943   
O63      O      0.196000000000     0.161660000000     0.560230000000    -0.489896   
O64      O      0.154570000000     0.116770000000     0.532590000000    -0.48975    


