data_structure

_audit_creation_method RASPA-1.0
_audit_creation_date 2023-5-22
_audit_author_name 'Poobodin Mano'

_cell_length_a    28.1124
_cell_length_b    28.0821
_cell_length_c    56.834
_cell_angle_alpha 89.9999
_cell_angle_beta  90.0016
_cell_angle_gamma 89.802
_cell_volume      44867.6

_symmetry_cell_setting          triclinic
_symmetry_space_group_name_Hall 'P 1'
_symmetry_space_group_name_H-M  'P 1'
_symmetry_Int_Tables_number     1

_symmetry_equiv_pos_as_xyz 'x,y,z'

loop_
_atom_site_label
_atom_site_type_symbol
_atom_site_fract_x
_atom_site_fract_y
_atom_site_fract_z
_atom_site_charge
C1       C      0.558090000000     0.726410000000     0.660610000000     0.356323   
C2       C      0.553470000000     0.716830000000     0.575350000000     0.358691   
C3       C      0.471960000000     0.636310000000     0.617990000000     0.353658   
C4       C      0.470580000000     0.808170000000     0.619710000000     0.354856   
C5       C      0.241750000000     0.226160000000     0.575650000000     0.356667   
C6       C      0.240610000000     0.220330000000     0.661770000000     0.356461   
C7       C      0.321820000000     0.136010000000     0.619980000000     0.355942   
C8       C      0.322610000000     0.309590000000     0.618280000000     0.355754   
C9       C      0.651450000000     0.625460000000     0.325340000000     0.356528   
C10      C      0.643560000000     0.624870000000     0.411450000000     0.356699   
C11      C      0.561280000000     0.543850000000     0.368620000000     0.355698   
C12      C      0.734280000000     0.543860000000     0.367900000000     0.356021   
C13      C      0.144990000000     0.314110000000     0.325110000000     0.356687   
C14      C      0.152080000000     0.314300000000     0.411340000000     0.356542   
C15      C      0.234800000000     0.395260000000     0.368670000000     0.355606   
C16      C      0.061770000000     0.395260000000     0.367700000000     0.355789   
C17      C      0.643520000000     0.812750000000     0.825960000000     0.357951   
C18      C      0.652620000000     0.813390000000     0.910870000000     0.358084   
C19      C      0.733360000000     0.899120000000     0.869610000000     0.352542   
C20      C      0.562210000000     0.899100000000     0.866900000000     0.352748   
C21      C      0.149790000000     0.128590000000     0.825200000000     0.356004   
C22      C      0.144290000000     0.128390000000     0.911240000000     0.356128   
C23      C      0.060370000000     0.047470000000     0.869160000000     0.355954   
C24      C      0.234190000000     0.047460000000     0.867180000000     0.355911   
C25      C      0.054490000000     0.220160000000     0.074940000000     0.356622   
C26      C      0.054330000000     0.225990000000     0.161070000000     0.356787   
C27      C      0.972990000000     0.309980000000     0.118670000000     0.355676   
C28      C      0.973770000000     0.136390000000     0.116980000000     0.355673   
C29      C      0.741810000000     0.718730000000     0.161800000000     0.358791   
C30      C      0.737790000000     0.728290000000     0.076530000000     0.356356   
C31      C      0.825030000000     0.809560000000     0.117560000000     0.354906   
C32      C      0.823640000000     0.637720000000     0.119300000000     0.35379    
C33      C      0.956930000000     0.443230000000     0.112390000000    -0.0640069  
C34      C      0.909560000000     0.449770000000     0.119730000000     0.0228132  
C35      C      0.883260000000     0.409620000000     0.126760000000    -0.0636437  
C36      C      0.903700000000     0.364140000000     0.126310000000     0.0211107  
C37      C      0.951010000000     0.357860000000     0.119040000000    -0.0970514  
C38      C      0.977460000000     0.397860000000     0.112160000000     0.0215101  
C39      C      0.887600000000     0.498150000000     0.119790000000     0.0225217  
C40      C      0.914350000000     0.538510000000     0.126090000000    -0.0632176  
C41      C      0.893760000000     0.583940000000     0.125820000000     0.0204383  
C42      C      0.845870000000     0.589950000000     0.119470000000    -0.0951531  
C43      C      0.819030000000     0.549750000000     0.113290000000     0.0211817  
C44      C      0.839680000000     0.504450000000     0.113330000000    -0.0637059  
C45      C      0.915000000000     0.908160000000     0.108420000000    -0.063623   
C46      C      0.889370000000     0.948440000000     0.116110000000     0.0226621  
C47      C      0.842620000000     0.942270000000     0.124320000000    -0.0641285  
C48      C      0.821940000000     0.897170000000     0.124720000000     0.0215929  
C49      C      0.847570000000     0.857020000000     0.117080000000    -0.0974515  
C50      C      0.894350000000     0.862880000000     0.108970000000     0.0205832  
C51      C      0.911250000000     0.996660000000     0.115840000000     0.0226679  
C52      C      0.959360000000     0.002780000000     0.121870000000    -0.0639795  
C53      C      0.979620000000     0.048150000000     0.122100000000     0.021379   
C54      C      0.952200000000     0.088490000000     0.116470000000    -0.0970208  
C55      C      0.904210000000     0.082540000000     0.110360000000     0.0210975  
C56      C      0.884000000000     0.037120000000     0.109960000000    -0.0637017  
C57      C      0.137160000000     0.188240000000     0.024710000000    -0.0641936  
C58      C      0.108210000000     0.197770000000     0.005060000000     0.0228882  
C59      C      0.063080000000     0.218140000000     0.008640000000    -0.0643362  
C60      C      0.046410000000     0.226820000000     0.031370000000     0.0220233  
C61      C      0.074570000000     0.215560000000     0.051030000000    -0.0977171  
C62      C      0.120550000000     0.197230000000     0.047500000000     0.0212526  
C63      C      0.122890000000     0.182740000000     0.981090000000     0.0227565  
C64      C      0.113560000000     0.211720000000     0.961410000000    -0.0640978  
C65      C      0.122180000000     0.194850000000     0.938630000000     0.021127   
C66      C      0.139960000000     0.148600000000     0.935140000000    -0.0975766  
C67      C      0.151010000000     0.120390000000     0.954820000000     0.0218884  
C68      C      0.142680000000     0.137300000000     0.977540000000    -0.0642709  
C69      C      0.634050000000     0.789720000000     0.975590000000    -0.0643766  
C70      C      0.674560000000     0.762380000000     0.981280000000     0.0233331  
C71      C      0.705540000000     0.748810000000     0.962920000000    -0.0639564  
C72      C      0.697000000000     0.763310000000     0.939760000000     0.0228211  
C73      C      0.658070000000     0.792730000000     0.934540000000    -0.0993026  
C74      C      0.626340000000     0.805330000000     0.952550000000     0.0238688  
C75      C      0.686140000000     0.750680000000     0.006300000000     0.0231367  
C76      C      0.673660000000     0.782230000000     0.024630000000    -0.0637828  
C77      C      0.688230000000     0.773520000000     0.047760000000     0.0224046  
C78      C      0.716640000000     0.733830000000     0.052980000000    -0.0989011  
C79      C      0.728040000000     0.701510000000     0.035020000000     0.0236567  
C80      C      0.712340000000     0.709410000000     0.012020000000    -0.0641654  
C81      C      0.367700000000     0.032770000000     0.872560000000    -0.0639507  
C82      C      0.374400000000     0.985120000000     0.865660000000     0.0227483  
C83      C      0.334310000000     0.958260000000     0.859070000000    -0.0636749  
C84      C      0.288730000000     0.978370000000     0.859640000000     0.0210233  
C85      C      0.282240000000     0.025900000000     0.866590000000    -0.0970958  
C86      C      0.322190000000     0.052960000000     0.872930000000     0.0213575  
C87      C      0.422810000000     0.963280000000     0.865740000000     0.0223924  
C88      C      0.463070000000     0.989730000000     0.859000000000    -0.0631082  
C89      C      0.508510000000     0.969130000000     0.859440000000     0.0198654  
C90      C      0.514570000000     0.921570000000     0.866460000000    -0.0955141  
C91      C      0.474450000000     0.895100000000     0.873110000000     0.021076   
C92      C      0.429200000000     0.915730000000     0.872860000000    -0.0637132  
C93      C      0.831890000000     0.989810000000     0.877320000000    -0.063169   
C94      C      0.872320000000     0.963310000000     0.870600000000     0.0224245  
C95      C      0.866250000000     0.915720000000     0.863550000000    -0.063761   
C96      C      0.821140000000     0.895100000000     0.863350000000     0.0210942  
C97      C      0.780840000000     0.921600000000     0.869980000000    -0.0954681  
C98      C      0.786590000000     0.969210000000     0.876910000000     0.0198916  
C99      C      0.920590000000     0.985140000000     0.870670000000     0.0227548  
C100     C      0.926980000000     0.032770000000     0.863730000000    -0.0639582  
C101     C      0.972350000000     0.052950000000     0.863370000000     0.0214368  
C102     C      0.012480000000     0.025910000000     0.869740000000    -0.0972012  
C103     C      0.006300000000     0.978390000000     0.876710000000     0.0210498  
C104     C      0.960850000000     0.958290000000     0.877280000000    -0.0636964  
C105     C      0.143210000000     0.306090000000     0.258800000000    -0.0643526  
C106     C      0.122920000000     0.261070000000     0.255090000000     0.0227861  
C107     C      0.113280000000     0.231980000000     0.274680000000    -0.0641177  
C108     C      0.122110000000     0.248360000000     0.297520000000     0.0211698  
C109     C      0.140410000000     0.294240000000     0.301160000000    -0.0979054  
C110     C      0.151750000000     0.322520000000     0.281570000000     0.0220764  
C111     C      0.108110000000     0.246660000000     0.231050000000     0.0228992  
C112     C      0.062830000000     0.227010000000     0.227390000000    -0.0644049  
C113     C      0.046110000000     0.218940000000     0.204620000000     0.0220695  
C114     C      0.074350000000     0.230130000000     0.185000000000    -0.0981315  
C115     C      0.120450000000     0.247780000000     0.188610000000     0.0213107  
C116     C      0.137130000000     0.256130000000     0.211440000000    -0.0642318  
C117     C      0.682530000000     0.708750000000     0.275270000000    -0.0640414  
C118     C      0.673730000000     0.679750000000     0.255560000000     0.0227268  
C119     C      0.654310000000     0.634270000000     0.259050000000    -0.0642787  
C120     C      0.645740000000     0.617380000000     0.281740000000     0.02195    
C121     C      0.656190000000     0.645640000000     0.301460000000    -0.0977512  
C122     C      0.673680000000     0.691900000000     0.298030000000     0.0210924  
C123     C      0.688390000000     0.694880000000     0.231610000000     0.0230617  
C124     C      0.659730000000     0.685080000000     0.211910000000    -0.0644118  
C125     C      0.676290000000     0.694380000000     0.189150000000     0.0218224  
C126     C      0.721900000000     0.713350000000     0.185700000000    -0.098649   
C127     C      0.749780000000     0.724780000000     0.205410000000     0.0224304  
C128     C      0.733180000000     0.715750000000     0.228110000000    -0.0645664  
C129     C      0.428360000000     0.528040000000     0.362150000000    -0.0640527  
C130     C      0.422130000000     0.480470000000     0.369220000000     0.0227787  
C131     C      0.462370000000     0.453900000000     0.376090000000    -0.0637537  
C132     C      0.507650000000     0.474330000000     0.375770000000     0.0212809  
C133     C      0.513630000000     0.521870000000     0.368790000000    -0.0971011  
C134     C      0.473550000000     0.548550000000     0.362040000000     0.0215564  
C135     C      0.373950000000     0.458620000000     0.369230000000     0.0227787  
C136     C      0.333670000000     0.485320000000     0.375930000000    -0.0637447  
C137     C      0.288390000000     0.464880000000     0.375650000000     0.0212786  
C138     C      0.282450000000     0.417220000000     0.368860000000    -0.0970988  
C139     C      0.322570000000     0.390420000000     0.362290000000     0.0215893  
C140     C      0.367760000000     0.410920000000     0.362370000000    -0.064076   
C141     C      0.962290000000     0.485350000000     0.360450000000    -0.063747   
C142     C      0.922190000000     0.458630000000     0.367120000000     0.0227804  
C143     C      0.928690000000     0.410910000000     0.373940000000    -0.0640777  
C144     C      0.974020000000     0.390400000000     0.374030000000     0.0216043  
C145     C      0.013970000000     0.417220000000     0.367490000000    -0.0971416  
C146     C      0.007710000000     0.464910000000     0.360730000000     0.0212625  
C147     C      0.873860000000     0.480490000000     0.367160000000     0.0228311  
C148     C      0.867320000000     0.528020000000     0.374300000000    -0.0641443  
C149     C      0.821980000000     0.548520000000     0.374450000000     0.0216777  
C150     C      0.782080000000     0.521890000000     0.367670000000    -0.0972957  
C151     C      0.788380000000     0.474400000000     0.360600000000     0.0213313  
C152     C      0.833810000000     0.453970000000     0.360250000000    -0.0637861  
C153     C      0.159400000000     0.256620000000     0.525060000000    -0.0641418  
C154     C      0.188650000000     0.247030000000     0.505520000000     0.0228306  
C155     C      0.233960000000     0.227230000000     0.509300000000    -0.0643439  
C156     C      0.250470000000     0.219110000000     0.532110000000     0.0219491  
C157     C      0.221980000000     0.230400000000     0.551660000000    -0.0979287  
C158     C      0.175860000000     0.248230000000     0.547930000000     0.0211925  
C159     C      0.174010000000     0.261440000000     0.481440000000     0.0228176  
C160     C      0.183930000000     0.232280000000     0.461890000000    -0.0641515  
C161     C      0.175170000000     0.248610000000     0.439030000000     0.0211716  
C162     C      0.156670000000     0.294520000000     0.435310000000    -0.0978586  
C163     C      0.145090000000     0.322890000000     0.454870000000     0.0220396  
C164     C      0.153550000000     0.306510000000     0.477670000000    -0.0643629  
C165     C      0.151700000000     0.137740000000     0.758910000000    -0.0642888  
C166     C      0.171330000000     0.183130000000     0.755430000000     0.0227964  
C167     C      0.180390000000     0.212030000000     0.775150000000    -0.064104   
C168     C      0.171680000000     0.195120000000     0.797900000000     0.0211192  
C169     C      0.154100000000     0.148890000000     0.801330000000    -0.097563   
C170     C      0.143300000000     0.120770000000     0.781610000000     0.0218722  
C171     C      0.186190000000     0.198160000000     0.731500000000     0.0228216  
C172     C      0.231300000000     0.218370000000     0.728040000000    -0.0642904  
C173     C      0.248180000000     0.227000000000     0.705360000000     0.0219868  
C174     C      0.220270000000     0.215840000000     0.685620000000    -0.0976635  
C175     C      0.174300000000     0.197690000000     0.689030000000     0.0212314  
C176     C      0.157470000000     0.188750000000     0.711770000000    -0.0641699  
C177     C      0.612210000000     0.707600000000     0.461800000000    -0.0641357  
C178     C      0.621160000000     0.678320000000     0.481410000000     0.0227935  
C179     C      0.640730000000     0.632820000000     0.477770000000    -0.0643023  
C180     C      0.649310000000     0.616190000000     0.455020000000     0.0219733  
C181     C      0.638730000000     0.644740000000     0.435400000000    -0.0978166  
C182     C      0.621070000000     0.691010000000     0.438990000000     0.0211702  
C183     C      0.606550000000     0.693230000000     0.505420000000     0.022981   
C184     C      0.635330000000     0.683110000000     0.525070000000    -0.0643394  
C185     C      0.618870000000     0.692280000000     0.547860000000     0.0217654  
C186     C      0.573240000000     0.711450000000     0.551410000000    -0.0985244  
C187     C      0.545220000000     0.723170000000     0.531760000000     0.0223227  
C188     C      0.561730000000     0.714260000000     0.509020000000    -0.0644756  
C189     C      0.622440000000     0.780330000000     0.712330000000    -0.0638274  
C190     C      0.610050000000     0.749030000000     0.730730000000     0.0231888  
C191     C      0.583840000000     0.707880000000     0.725130000000    -0.0642415  
C192     C      0.568050000000     0.699880000000     0.702160000000     0.0236961  
C193     C      0.579360000000     0.731970000000     0.684120000000    -0.0989192  
C194     C      0.607790000000     0.771520000000     0.689230000000     0.0224085  
C195     C      0.621660000000     0.760920000000     0.755730000000     0.0233582  
C196     C      0.662130000000     0.788120000000     0.761330000000    -0.0643735  
C197     C      0.669830000000     0.803980000000     0.784310000000     0.0239078  
C198     C      0.638140000000     0.791760000000     0.802370000000    -0.0993493  
C199     C      0.599280000000     0.762450000000     0.797240000000     0.0229323  
C200     C      0.590730000000     0.747710000000     0.774140000000    -0.0640556  
C201     C      0.455900000000     0.503150000000     0.623930000000    -0.0636203  
C202     C      0.408000000000     0.497180000000     0.617440000000     0.0224823  
C203     C      0.381260000000     0.537730000000     0.611140000000    -0.0631833  
C204     C      0.401840000000     0.583020000000     0.611440000000     0.0203701  
C205     C      0.449720000000     0.588700000000     0.617820000000    -0.0950743  
C206     C      0.476550000000     0.548310000000     0.624010000000     0.0210853  
C207     C      0.386050000000     0.448950000000     0.617450000000     0.0228323  
C208     C      0.412390000000     0.408630000000     0.610420000000    -0.0636739  
C209     C      0.391960000000     0.363290000000     0.610810000000     0.0211292  
C210     C      0.344590000000     0.357310000000     0.618000000000    -0.0971175  
C211     C      0.318110000000     0.397470000000     0.624880000000     0.021543   
C212     C      0.338640000000     0.442710000000     0.624720000000    -0.0640387  
C213     C      0.336260000000     0.002290000000     0.615220000000    -0.06394    
C214     C      0.384330000000     0.995860000000     0.621320000000     0.0226523  
C215     C      0.411540000000     0.036150000000     0.627220000000    -0.0637172  
C216     C      0.391330000000     0.081710000000     0.626750000000     0.0211678  
C217     C      0.343390000000     0.087960000000     0.620570000000    -0.0971278  
C218     C      0.316000000000     0.047790000000     0.614920000000     0.02137    
C219     C      0.406230000000     0.947490000000     0.621100000000     0.0226932  
C220     C      0.380580000000     0.907400000000     0.628780000000    -0.0636243  
C221     C      0.401240000000     0.861970000000     0.628260000000     0.0206066  
C222     C      0.448040000000     0.855780000000     0.620190000000    -0.0974497  
C223     C      0.473700000000     0.895760000000     0.612570000000     0.021612   
C224     C      0.453010000000     0.941000000000     0.612930000000    -0.0642005  
H1       H      0.846960000000     0.413300000000     0.132890000000     0.0482021  
H2       H      0.882560000000     0.333980000000     0.131850000000     0.0411836  
H3       H      0.013980000000     0.394080000000     0.106350000000     0.0405638  
H4       H      0.978050000000     0.473080000000     0.106460000000     0.0483468  
H5       H      0.951120000000     0.535020000000     0.131510000000     0.0481264  
H6       H      0.915230000000     0.614280000000     0.130800000000     0.0413433  
H7       H      0.782060000000     0.553300000000     0.108180000000     0.0411489  
H8       H      0.818170000000     0.474450000000     0.107960000000     0.0482425  
H9       H      0.822090000000     0.972230000000     0.130800000000     0.0483795  
H10      H      0.785870000000     0.893760000000     0.131190000000     0.041241   
H11      H      0.914860000000     0.832580000000     0.102880000000     0.0407003  
H12      H      0.950860000000     0.911640000000     0.101700000000     0.0481531  
H13      H      0.981250000000     0.972620000000     0.126840000000     0.0483141  
H14      H      0.016710000000     0.051640000000     0.126950000000     0.0406864  
H15      H      0.882290000000     0.112960000000     0.105780000000     0.0414236  
H16      H      0.847060000000     0.033720000000     0.104860000000     0.048259   
H17      H      0.039680000000     0.225390000000     0.993920000000     0.048707   
H18      H      0.010840000000     0.241140000000     0.033540000000     0.0409058  
H19      H      0.143080000000     0.188360000000     0.062340000000     0.0408714  
H20      H      0.172290000000     0.172940000000     0.022480000000     0.0485922  
H21      H      0.098700000000     0.247070000000     0.963620000000     0.0485789  
H22      H      0.113500000000     0.217430000000     0.923780000000     0.0409996  
H23      H      0.164900000000     0.084620000000     0.952680000000     0.0408849  
H24      H      0.149750000000     0.113900000000     0.992290000000     0.0486767  
H25      H      0.737620000000     0.728630000000     0.966420000000     0.0481308  
H26      H      0.722220000000     0.753500000000     0.926170000000     0.0380305  
H27      H      0.595740000000     0.827680000000     0.948860000000     0.0377752  
H28      H      0.608510000000     0.799840000000     0.988940000000     0.0481452  
H29      H      0.654360000000     0.814860000000     0.021100000000     0.0480166  
H30      H      0.679370000000     0.799200000000     0.061310000000     0.0377918  
H31      H      0.749600000000     0.670340000000     0.038720000000     0.0378666  
H32      H      0.721550000000     0.683430000000     0.998700000000     0.0481109  
H33      H      0.338110000000     0.921720000000     0.853270000000     0.0481894  
H34      H      0.258630000000     0.956760000000     0.854490000000     0.041156   
H35      H      0.318280000000     0.089690000000     0.878440000000     0.0406608  
H36      H      0.397510000000     0.054350000000     0.878100000000     0.0483268  
H37      H      0.459490000000     0.026240000000     0.853110000000     0.048032   
H38      H      0.538780000000     0.990320000000     0.854120000000     0.0408644  
H39      H      0.477990000000     0.858410000000     0.878750000000     0.0415954  
H40      H      0.399300000000     0.894480000000     0.878610000000     0.0482342  
H41      H      0.896290000000     0.894440000000     0.857830000000     0.0482547  
H42      H      0.817840000000     0.858370000000     0.857770000000     0.0415846  
H43      H      0.756180000000     0.990430000000     0.882220000000     0.0408497  
H44      H      0.835230000000     0.026340000000     0.883160000000     0.0480597  
H45      H      0.897020000000     0.054340000000     0.858170000000     0.0483176  
H46      H      0.976020000000     0.089670000000     0.857830000000     0.0406371  
H47      H      0.036540000000     0.956790000000     0.881880000000     0.0411392  
H48      H      0.957300000000     0.921770000000     0.883100000000     0.0482021  
H49      H      0.098030000000     0.196930000000     0.272350000000     0.0485326  
H50      H      0.113190000000     0.225750000000     0.312300000000     0.0407264  
H51      H      0.166050000000     0.358000000000     0.283830000000     0.0409579  
H52      H      0.150530000000     0.329590000000     0.244140000000     0.0487063  
H53      H      0.039380000000     0.219840000000     0.242080000000     0.0486971  
H54      H      0.010450000000     0.205140000000     0.202390000000     0.040884   
H55      H      0.143060000000     0.256550000000     0.173810000000     0.0408254  
H56      H      0.172380000000     0.270870000000     0.213730000000     0.0485715  
H57      H      0.647660000000     0.610820000000     0.244290000000     0.0486717  
H58      H      0.632090000000     0.581600000000     0.283830000000     0.0410059  
H59      H      0.681900000000     0.714510000000     0.312910000000     0.0408467  
H60      H      0.697070000000     0.744150000000     0.273110000000     0.0485281  
H61      H      0.624850000000     0.669420000000     0.214070000000     0.0486456  
H62      H      0.653960000000     0.685390000000     0.174270000000     0.0407293  
H63      H      0.785060000000     0.739590000000     0.203300000000     0.0407549  
H64      H      0.756360000000     0.723210000000     0.242870000000     0.0487172  
H65      H      0.458880000000     0.417420000000     0.381990000000     0.048286   
H66      H      0.537910000000     0.453010000000     0.381200000000     0.0413566  
H67      H      0.477100000000     0.585240000000     0.356450000000     0.0406012  
H68      H      0.398400000000     0.549350000000     0.356350000000     0.048333   
H69      H      0.337130000000     0.521900000000     0.381680000000     0.0482909  
H70      H      0.258100000000     0.486300000000     0.380940000000     0.0413644  
H71      H      0.319050000000     0.353630000000     0.356850000000     0.040599   
H72      H      0.397750000000     0.389500000000     0.356710000000     0.0483318  
H73      H      0.898840000000     0.389480000000     0.379580000000     0.0483363  
H74      H      0.977780000000     0.353590000000     0.379440000000     0.0406133  
H75      H      0.037860000000     0.486340000000     0.355470000000     0.041377   
H76      H      0.958580000000     0.521950000000     0.354740000000     0.0483076  
H77      H      0.897130000000     0.549290000000     0.380130000000     0.048368   
H78      H      0.818180000000     0.585180000000     0.380100000000     0.0405794  
H79      H      0.758270000000     0.453110000000     0.355150000000     0.0413463  
H80      H      0.837540000000     0.417520000000     0.354300000000     0.0482954  
H81      H      0.257580000000     0.219960000000     0.494670000000     0.0486801  
H82      H      0.286140000000     0.205170000000     0.534430000000     0.0409181  
H83      H      0.153070000000     0.257080000000     0.562670000000     0.0408664  
H84      H      0.124120000000     0.271480000000     0.522670000000     0.0485438  
H85      H      0.199300000000     0.197190000000     0.464270000000     0.0485423  
H86      H      0.184280000000     0.225930000000     0.424280000000     0.0407245  
H87      H      0.130640000000     0.358400000000     0.452560000000     0.0409846  
H88      H      0.146020000000     0.330070000000     0.492300000000     0.0487064  
H89      H      0.195110000000     0.247350000000     0.772990000000     0.0485825  
H90      H      0.180170000000     0.217620000000     0.812780000000     0.0410095  
H91      H      0.129560000000     0.085030000000     0.783700000000     0.040893   
H92      H      0.144840000000     0.114390000000     0.744140000000     0.0487012  
H93      H      0.254510000000     0.225520000000     0.742830000000     0.0487059  
H94      H      0.283720000000     0.241180000000     0.703290000000     0.0409147  
H95      H      0.151960000000     0.188910000000     0.674130000000     0.0408737  
H96      H      0.122370000000     0.173580000000     0.713920000000     0.0485846  
H97      H      0.647500000000     0.609170000000     0.492460000000     0.0486656  
H98      H      0.663090000000     0.580400000000     0.452810000000     0.0410059  
H99      H      0.612740000000     0.713840000000     0.424180000000     0.0408271  
H100     H      0.597560000000     0.743020000000     0.464070000000     0.0485627  
H101     H      0.670240000000     0.667310000000     0.522820000000     0.0486199  
H102     H      0.641300000000     0.683070000000     0.562690000000     0.0407396  
H103     H      0.509930000000     0.738130000000     0.533940000000     0.0407912  
H104     H      0.538460000000     0.721960000000     0.494300000000     0.0486815  
H105     H      0.574690000000     0.682080000000     0.738510000000     0.0481421  
H106     H      0.546480000000     0.668820000000     0.698550000000     0.0378239  
H107     H      0.616580000000     0.797030000000     0.675620000000     0.0378099  
H108     H      0.641730000000     0.812870000000     0.715760000000     0.0480321  
H109     H      0.687640000000     0.797950000000     0.747940000000     0.0481377  
H110     H      0.700380000000     0.826240000000     0.787930000000     0.0377304  
H111     H      0.574090000000     0.752940000000     0.810870000000     0.0379866  
H112     H      0.558700000000     0.727650000000     0.770700000000     0.0481714  
H113     H      0.344510000000     0.534500000000     0.605690000000     0.0481144  
H114     H      0.380390000000     0.613510000000     0.606460000000     0.0413593  
H115     H      0.513500000000     0.551600000000     0.629140000000     0.0411464  
H116     H      0.477400000000     0.472990000000     0.629310000000     0.0482047  
H117     H      0.448720000000     0.412080000000     0.604350000000     0.0482194  
H118     H      0.413120000000     0.333000000000     0.605270000000     0.0411716  
H119     H      0.281550000000     0.393930000000     0.630630000000     0.0405609  
H120     H      0.317480000000     0.472680000000     0.630640000000     0.0483523  
H121     H      0.448450000000     0.032510000000     0.632380000000     0.0482587  
H122     H      0.413220000000     0.111990000000     0.631350000000     0.0414081  
H123     H      0.278940000000     0.051520000000     0.610010000000     0.0406977  
H124     H      0.314400000000     0.972250000000     0.610240000000     0.0482847  
H125     H      0.344690000000     0.911130000000     0.635470000000     0.0481432  
H126     H      0.380700000000     0.831820000000     0.634340000000     0.0407052  
H127     H      0.509790000000     0.892100000000     0.606120000000     0.0412575  
H128     H      0.473550000000     0.970810000000     0.606470000000     0.0484203  
In1      In     0.513990000000     0.722310000000     0.618500000000     2.4191     
In2      In     0.281170000000     0.223110000000     0.618850000000     2.4256     
In3      In     0.647630000000     0.585190000000     0.368330000000     2.42822    
In4      In     0.148430000000     0.353980000000     0.368210000000     2.42874    
In5      In     0.647940000000     0.855780000000     0.868340000000     2.41287    
In6      In     0.147140000000     0.088280000000     0.868200000000     2.42355    
In7      In     0.014420000000     0.223210000000     0.117970000000     2.42546    
In8      In     0.781590000000     0.724010000000     0.118720000000     2.419      
O1       O      0.513930000000     0.802630000000     0.614750000000    -0.498496   
O2       O      0.448470000000     0.770070000000     0.624130000000    -0.479138   
O3       O      0.577270000000     0.709160000000     0.593850000000    -0.482313   
O4       O      0.576980000000     0.742380000000     0.642070000000    -0.482085   
O5       O      0.448480000000     0.674560000000     0.615680000000    -0.478153   
O6       O      0.517670000000     0.708040000000     0.657810000000    -0.497345   
O7       O      0.510420000000     0.727420000000     0.578770000000    -0.501883   
O8       O      0.516220000000     0.641720000000     0.620570000000    -0.495105   
O9       O      0.278630000000     0.303790000000     0.621590000000    -0.498624   
O10      O      0.346050000000     0.271580000000     0.615280000000    -0.480316   
O11      O      0.216800000000     0.213860000000     0.643170000000    -0.481155   
O12      O      0.217540000000     0.233190000000     0.594080000000    -0.48188    
O13      O      0.345630000000     0.173740000000     0.622630000000    -0.480463   
O14      O      0.285180000000     0.217380000000     0.579170000000    -0.502539   
O15      O      0.284200000000     0.228510000000     0.658550000000    -0.502123   
O16      O      0.277880000000     0.142410000000     0.616700000000    -0.498601   
O17      O      0.728110000000     0.587820000000     0.371350000000    -0.499522   
O18      O      0.696540000000     0.520390000000     0.364690000000    -0.480636   
O19      O      0.637210000000     0.649090000000     0.392950000000    -0.481856   
O20      O      0.657640000000     0.649420000000     0.343920000000    -0.481776   
O21      O      0.599180000000     0.520340000000     0.371760000000    -0.480622   
O22      O      0.643080000000     0.581880000000     0.328610000000    -0.50245    
O23      O      0.652200000000     0.581340000000     0.408030000000    -0.502734   
O24      O      0.567130000000     0.587860000000     0.365300000000    -0.499374   
O25      O      0.067920000000     0.351220000000     0.370910000000    -0.49949    
O26      O      0.099540000000     0.418830000000     0.364740000000    -0.480409   
O27      O      0.158890000000     0.290110000000     0.392860000000    -0.481792   
O28      O      0.138370000000     0.290010000000     0.343620000000    -0.481726   
O29      O      0.196870000000     0.418830000000     0.371620000000    -0.480545   
O30      O      0.153580000000     0.357590000000     0.328520000000    -0.502743   
O31      O      0.143200000000     0.357770000000     0.407880000000    -0.50299    
O32      O      0.228950000000     0.351200000000     0.365480000000    -0.49945    
O33      O      0.567570000000     0.855130000000     0.870600000000    -0.494989   
O34      O      0.600480000000     0.921890000000     0.863830000000    -0.476788   
O35      O      0.668040000000     0.793470000000     0.892460000000    -0.482335   
O36      O      0.628220000000     0.793120000000     0.844450000000    -0.482126   
O37      O      0.694930000000     0.921950000000     0.872620000000    -0.47681    
O38      O      0.661260000000     0.853430000000     0.828920000000    -0.497724   
O39      O      0.634630000000     0.854040000000     0.907760000000    -0.497921   
O40      O      0.728310000000     0.855100000000     0.866050000000    -0.494967   
O41      O      0.227750000000     0.091370000000     0.870660000000    -0.498255   
O42      O      0.196510000000     0.023710000000     0.864270000000    -0.480159   
O43      O      0.137630000000     0.152420000000     0.892700000000    -0.481048   
O44      O      0.156250000000     0.152530000000     0.843770000000    -0.480963   
O45      O      0.098210000000     0.023710000000     0.872060000000    -0.48032    
O46      O      0.141700000000     0.084950000000     0.828480000000    -0.501583   
O47      O      0.152660000000     0.084770000000     0.907900000000    -0.50197    
O48      O      0.066510000000     0.091390000000     0.865710000000    -0.498296   
O49      O      0.017750000000     0.142490000000     0.120140000000    -0.498489   
O50      O      0.949920000000     0.174280000000     0.114380000000    -0.480329   
O51      O      0.078330000000     0.232880000000     0.142570000000    -0.48167    
O52      O      0.078510000000     0.213550000000     0.093470000000    -0.481352   
O53      O      0.949570000000     0.272120000000     0.121710000000    -0.480192   
O54      O      0.010930000000     0.228610000000     0.078280000000    -0.502249   
O55      O      0.010870000000     0.217490000000     0.157660000000    -0.502545   
O56      O      0.016930000000     0.303880000000     0.115260000000    -0.498647   
O57      O      0.779390000000     0.643430000000     0.116670000000    -0.494993   
O58      O      0.847100000000     0.675810000000     0.121630000000    -0.478024   
O59      O      0.718790000000     0.744510000000     0.095020000000    -0.482072   
O60      O      0.718150000000     0.711280000000     0.143260000000    -0.482567   
O61      O      0.847140000000     0.771300000000     0.113160000000    -0.479248   
O62      O      0.784900000000     0.729030000000     0.158460000000    -0.501776   
O63      O      0.778160000000     0.709610000000     0.079420000000    -0.497372   
O64      O      0.781660000000     0.804330000000     0.122480000000    -0.498557   


