data_structure

_audit_creation_method RASPA-1.0
_audit_creation_date 2023-5-22
_audit_author_name 'Poobodin Mano'

_cell_length_a    35.9796
_cell_length_b    35.602
_cell_length_c    35.7823
_cell_angle_alpha 90
_cell_angle_beta  90
_cell_angle_gamma 90
_cell_volume      45835.2

_symmetry_cell_setting          triclinic
_symmetry_space_group_name_Hall 'P 1'
_symmetry_space_group_name_H-M  'P 1'
_symmetry_Int_Tables_number     1

_symmetry_equiv_pos_as_xyz 'x,y,z'

loop_
_atom_site_label
_atom_site_type_symbol
_atom_site_fract_x
_atom_site_fract_y
_atom_site_fract_z
_atom_site_charge
C1       C      0.897710000000     0.402640000000     0.903210000000     0.362801   
C2       C      0.810890000000     0.403820000000     0.814790000000     0.360816   
C3       C      0.894440000000     0.315470000000     0.814200000000     0.361089   
C4       C      0.809420000000     0.317720000000     0.904150000000     0.360772   
C5       C      0.063390000000     0.564270000000     0.064050000000     0.366262   
C6       C      0.063100000000     0.652110000000     0.149640000000     0.35568    
C7       C      0.152200000000     0.566300000000     0.152210000000     0.360664   
C8       C      0.150790000000     0.651800000000     0.063780000000     0.35962    
C9       C      0.310380000000     0.816240000000     0.899510000000     0.359838   
C10      C      0.397370000000     0.816380000000     0.812080000000     0.36613    
C11      C      0.308720000000     0.904860000000     0.813850000000     0.360434   
C12      C      0.397380000000     0.902810000000     0.899640000000     0.355626   
C13      C      0.560130000000     0.064410000000     0.063800000000     0.364279   
C14      C      0.561790000000     0.153370000000     0.151950000000     0.356106   
C15      C      0.646980000000     0.066560000000     0.153230000000     0.364016   
C16      C      0.646580000000     0.152690000000     0.064410000000     0.353976   
C17      C      0.402750000000     0.403420000000     0.401170000000     0.357725   
C18      C      0.312150000000     0.318270000000     0.404780000000     0.362799   
C19      C      0.313100000000     0.402700000000     0.316380000000     0.355625   
C20      C      0.400040000000     0.316180000000     0.315230000000     0.365688   
C21      C      0.649930000000     0.567540000000     0.651100000000     0.360068   
C22      C      0.565310000000     0.566970000000     0.563110000000     0.361033   
C23      C      0.562790000000     0.655390000000     0.650330000000     0.362642   
C24      C      0.651160000000     0.656010000000     0.564570000000     0.360741   
C25      C      0.899950000000     0.816190000000     0.310940000000     0.364485   
C26      C      0.813400000000     0.905730000000     0.313640000000     0.363      
C27      C      0.814000000000     0.815930000000     0.399270000000     0.354487   
C28      C      0.898010000000     0.904320000000     0.400510000000     0.35657    
C29      C      0.148140000000     0.156410000000     0.566690000000     0.362697   
C30      C      0.147230000000     0.068460000000     0.650270000000     0.356891   
C31      C      0.056550000000     0.152780000000     0.650980000000     0.358467   
C32      C      0.059070000000     0.067650000000     0.563960000000     0.364851   
C33      C      0.990050000000     0.993360000000     0.533790000000    -0.0655532  
C34      C      0.989460000000     0.998340000000     0.494840000000     0.0234756  
C35      C      0.011940000000     0.026310000000     0.478820000000    -0.0654365  
C36      C      0.034730000000     0.048700000000     0.501280000000     0.0231972  
C37      C      0.035170000000     0.043820000000     0.540230000000    -0.101674   
C38      C      0.012530000000     0.016020000000     0.556300000000     0.0237717  
C39      C      0.965630000000     0.974300000000     0.470940000000     0.0223826  
C40      C      0.964770000000     0.935200000000     0.476250000000    -0.0643238  
C41      C      0.942790000000     0.912460000000     0.453340000000     0.0218792  
C42      C      0.920950000000     0.928420000000     0.424930000000    -0.0974062  
C43      C      0.921500000000     0.967540000000     0.419850000000     0.0209872  
C44      C      0.943790000000     0.990240000000     0.442510000000    -0.0642696  
C45      C      0.778330000000     0.762740000000     0.483550000000    -0.0640841  
C46      C      0.744820000000     0.747700000000     0.469970000000     0.0222959  
C47      C      0.734400000000     0.755140000000     0.432830000000    -0.0642463  
C48      C      0.756980000000     0.777130000000     0.409790000000     0.021464   
C49      C      0.790360000000     0.792280000000     0.423460000000    -0.0975105  
C50      C      0.800820000000     0.784880000000     0.460560000000     0.0203617  
C51      C      0.720810000000     0.724360000000     0.494450000000     0.0230946  
C52      C      0.736460000000     0.696810000000     0.517790000000    -0.0649057  
C53      C      0.713830000000     0.674650000000     0.540630000000     0.0219995  
C54      C      0.675110000000     0.679710000000     0.540740000000    -0.100135   
C55      C      0.659450000000     0.707370000000     0.517590000000     0.0228195  
C56      C      0.682060000000     0.729410000000     0.494620000000    -0.0650435  
C57      C      0.231250000000     0.191660000000     0.512080000000    -0.0653119  
C58      C      0.218360000000     0.226530000000     0.499010000000     0.0230378  
C59      C      0.182370000000     0.238330000000     0.508730000000    -0.0653303  
C60      C      0.159730000000     0.215720000000     0.531110000000     0.0228884  
C61      C      0.172460000000     0.180670000000     0.543820000000    -0.101657   
C62      C      0.208430000000     0.168840000000     0.534080000000     0.0231114  
C63      C      0.242300000000     0.250410000000     0.475070000000     0.0230655  
C64      C      0.279610000000     0.256870000000     0.484690000000    -0.0654006  
C65      C      0.302200000000     0.279270000000     0.462040000000     0.0230037  
C66      C      0.288040000000     0.295250000000     0.429080000000    -0.102127   
C67      C      0.250750000000     0.288740000000     0.419400000000     0.023105   
C68      C      0.228030000000     0.266720000000     0.442300000000    -0.0653515  
C69      C      0.477600000000     0.433590000000     0.469180000000    -0.0647116  
C70      C      0.473400000000     0.472840000000     0.469170000000     0.0226775  
C71      C      0.446000000000     0.489070000000     0.446290000000    -0.0644837  
C72      C      0.423100000000     0.466520000000     0.424110000000     0.0213293  
C73      C      0.427280000000     0.427290000000     0.424220000000    -0.099399   
C74      C      0.454830000000     0.411050000000     0.446860000000     0.0221183  
C75      C      0.497340000000     0.496780000000     0.493140000000     0.022964   
C76      C      0.504920000000     0.486400000000     0.530280000000    -0.0649605  
C77      C      0.527040000000     0.509190000000     0.553010000000     0.0228246  
C78      C      0.542180000000     0.542720000000     0.539010000000    -0.0998661  
C79      C      0.534830000000     0.553010000000     0.501840000000     0.0220005  
C80      C      0.512550000000     0.530330000000     0.479170000000    -0.0648227  
C81      C      0.779280000000     0.968190000000     0.235180000000    -0.0650599  
C82      C      0.742550000000     0.975560000000     0.246340000000     0.0230252  
C83      C      0.729450000000     0.960110000000     0.279980000000    -0.0651569  
C84      C      0.752630000000     0.937760000000     0.302050000000     0.0230873  
C85      C      0.789230000000     0.930060000000     0.290690000000    -0.0999343  
C86      C      0.802330000000     0.945460000000     0.257040000000     0.0227452  
C87      C      0.717890000000     0.999110000000     0.222820000000     0.0231261  
C88      C      0.730690000000     0.033320000000     0.208080000000    -0.0652311  
C89      C      0.707490000000     0.055430000000     0.185790000000     0.0232906  
C90      C      0.671190000000     0.043540000000     0.177440000000    -0.100433   
C91      C      0.658400000000     0.009300000000     0.192110000000     0.0230288  
C92      C      0.681460000000     0.987400000000     0.214770000000    -0.0652234  
C93      C      0.470040000000     0.286500000000     0.241980000000    -0.0656395  
C94      C      0.469460000000     0.247200000000     0.245590000000     0.0235657  
C95      C      0.445780000000     0.230780000000     0.272200000000    -0.065498   
C96      C      0.423000000000     0.253200000000     0.294640000000     0.0232946  
C97      C      0.423770000000     0.292490000000     0.291180000000    -0.101655   
C98      C      0.447560000000     0.308940000000     0.264700000000     0.0240305  
C99      C      0.493440000000     0.223380000000     0.221640000000     0.0222987  
C100     C      0.495650000000     0.229930000000     0.182980000000    -0.0642451  
C101     C      0.517840000000     0.207140000000     0.160320000000     0.0217281  
C102     C      0.538580000000     0.177630000000     0.175950000000    -0.0970599  
C103     C      0.536680000000     0.171290000000     0.214650000000     0.0209127  
C104     C      0.514160000000     0.193820000000     0.237250000000    -0.0641582  
C105     C      0.274910000000     0.987450000000     0.756510000000    -0.0648218  
C106     C      0.239650000000     0.975070000000     0.744800000000     0.023048   
C107     C      0.227220000000     0.939460000000     0.756410000000    -0.0649015  
C108     C      0.249580000000     0.916710000000     0.778960000000     0.0225631  
C109     C      0.284820000000     0.929110000000     0.790490000000    -0.10096    
C110     C      0.297210000000     0.964740000000     0.779150000000     0.0220234  
C111     C      0.216040000000     0.999110000000     0.720440000000     0.0223887  
C112     C      0.214130000000     0.038150000000     0.726220000000    -0.06404    
C113     C      0.191950000000     0.060710000000     0.703300000000     0.0214574  
C114     C      0.171100000000     0.044720000000     0.674180000000    -0.0966239  
C115     C      0.172980000000     0.005760000000     0.668320000000     0.0210183  
C116     C      0.195240000000     0.983210000000     0.691150000000    -0.0639767  
C117     C      0.478500000000     0.757050000000     0.779610000000    -0.0654566  
C118     C      0.467830000000     0.747810000000     0.742960000000     0.0233246  
C119     C      0.433710000000     0.761280000000     0.729270000000    -0.0654243  
C120     C      0.410830000000     0.783610000000     0.751710000000     0.0233336  
C121     C      0.421510000000     0.792760000000     0.788350000000    -0.102483   
C122     C      0.455540000000     0.779220000000     0.802110000000     0.0237488  
C123     C      0.492190000000     0.724170000000     0.719100000000     0.0228803  
C124     C      0.530780000000     0.730310000000     0.718180000000    -0.0650537  
C125     C      0.553710000000     0.708050000000     0.695740000000     0.0231289  
C126     C      0.538540000000     0.679080000000     0.673890000000    -0.100747   
C127     C      0.500000000000     0.672880000000     0.674800000000     0.022361   
C128     C      0.477040000000     0.695250000000     0.697110000000    -0.0648863  
C129     C      0.468450000000     0.974810000000     0.930530000000    -0.0640732  
C130     C      0.467120000000     0.971280000000     0.969670000000     0.022206   
C131     C      0.442640000000     0.944890000000     0.985490000000    -0.0639946  
C132     C      0.419980000000     0.922670000000     0.962740000000     0.0207433  
C133     C      0.421380000000     0.926260000000     0.923680000000    -0.097483   
C134     C      0.445870000000     0.952500000000     0.907790000000     0.0213656  
C135     C      0.491070000000     0.995110000000     0.993880000000     0.0233892  
C136     C      0.527990000000     0.003070000000     0.983620000000    -0.0654458  
C137     C      0.550420000000     0.025600000000     0.006320000000     0.0231298  
C138     C      0.536470000000     0.040560000000     0.039810000000    -0.103459   
C139     C      0.499660000000     0.032590000000     0.050170000000     0.0236244  
C140     C      0.477180000000     0.010170000000     0.027440000000    -0.0655228  
C141     C      0.991670000000     0.682880000000     0.221040000000    -0.0640855  
C142     C      0.992960000000     0.722220000000     0.217640000000     0.0222104  
C143     C      0.017490000000     0.738220000000     0.191490000000    -0.0639168  
C144     C      0.040270000000     0.715450000000     0.169400000000     0.0207352  
C145     C      0.038930000000     0.676180000000     0.172880000000    -0.0974913  
C146     C      0.014370000000     0.660120000000     0.198850000000     0.0214385  
C147     C      0.968970000000     0.746450000000     0.241420000000     0.0234449  
C148     C      0.932080000000     0.736050000000     0.249340000000    -0.0653918  
C149     C      0.909650000000     0.758700000000     0.271910000000     0.0230361  
C150     C      0.923580000000     0.792300000000     0.286970000000    -0.103451   
C151     C      0.960350000000     0.802830000000     0.279000000000     0.023637   
C152     C      0.982820000000     0.780130000000     0.256530000000    -0.0655033  
C153     C      0.197550000000     0.692990000000     0.978310000000    -0.0645303  
C154     C      0.218970000000     0.722020000000     0.993960000000     0.0227567  
C155     C      0.217790000000     0.727740000000     0.032820000000    -0.0645328  
C156     C      0.195790000000     0.704800000000     0.055550000000     0.022305   
C157     C      0.174280000000     0.675890000000     0.039840000000    -0.0980418  
C158     C      0.175330000000     0.670260000000     0.001000000000     0.0217552  
C159     C      0.242470000000     0.746230000000     0.969800000000     0.022841   
C160     C      0.264470000000     0.730330000000     0.941450000000    -0.0645126  
C161     C      0.286620000000     0.753080000000     0.918710000000     0.0216318  
C162     C      0.287010000000     0.792230000000     0.923650000000    -0.0980005  
C163     C      0.264950000000     0.808170000000     0.951890000000     0.0224127  
C164     C      0.243010000000     0.785380000000     0.974840000000    -0.0646263  
C165     C      0.233450000000     0.508330000000     0.186840000000    -0.0649042  
C166     C      0.221220000000     0.497370000000     0.222570000000     0.0230941  
C167     C      0.186190000000     0.509690000000     0.234990000000    -0.0647873  
C168     C      0.163910000000     0.532290000000     0.212230000000     0.0220671  
C169     C      0.176100000000     0.542980000000     0.176490000000    -0.101034   
C170     C      0.211110000000     0.530840000000     0.164040000000     0.0226481  
C171     C      0.244790000000     0.473040000000     0.246690000000     0.0222448  
C172     C      0.265200000000     0.443150000000     0.231190000000    -0.0637482  
C173     C      0.287330000000     0.420290000000     0.253840000000     0.020673   
C174     C      0.289470000000     0.426720000000     0.292500000000    -0.0959822  
C175     C      0.269060000000     0.456470000000     0.308090000000     0.0211544  
C176     C      0.247010000000     0.479420000000     0.285430000000    -0.063831   
C177     C      0.955850000000     0.282930000000     0.734630000000    -0.0649611  
C178     C      0.961800000000     0.245030000000     0.743890000000     0.0230204  
C179     C      0.945080000000     0.230430000000     0.776290000000    -0.0648985  
C180     C      0.922970000000     0.253260000000     0.798980000000     0.0220739  
C181     C      0.917290000000     0.291210000000     0.789850000000    -0.0999178  
C182     C      0.933890000000     0.305810000000     0.757430000000     0.0228649  
C183     C      0.985680000000     0.220920000000     0.720030000000     0.0226925  
C184     C      0.982810000000     0.222410000000     0.680880000000    -0.0647128  
C185     C      0.005610000000     0.200020000000     0.658440000000     0.0221745  
C186     C      0.031890000000     0.175830000000     0.674700000000    -0.0995262  
C187     C      0.034710000000     0.174220000000     0.713810000000     0.0216122  
C188     C      0.011780000000     0.196460000000     0.736260000000    -0.0645378  
C189     C      0.725620000000     0.185850000000     0.002880000000    -0.064088   
C190     C      0.715940000000     0.223570000000     0.996520000000     0.0221831  
C191     C      0.683170000000     0.237720000000     0.012620000000    -0.0639311  
C192     C      0.660640000000     0.214690000000     0.034700000000     0.0201974  
C193     C      0.670330000000     0.176990000000     0.040980000000    -0.0971989  
C194     C      0.703000000000     0.162780000000     0.024810000000     0.0213299  
C195     C      0.739910000000     0.248040000000     0.973110000000     0.0230936  
C196     C      0.778790000000     0.247070000000     0.976960000000    -0.0650335  
C197     C      0.801360000000     0.269920000000     0.954750000000     0.0227819  
C198     C      0.785530000000     0.294090000000     0.928110000000    -0.100038   
C199     C      0.746690000000     0.295160000000     0.924290000000     0.0220468  
C200     C      0.724110000000     0.272440000000     0.946610000000    -0.0648573  
C201     C      0.743480000000     0.434410000000     0.739460000000    -0.0647185  
C202     C      0.742460000000     0.473550000000     0.744720000000     0.0228411  
C203     C      0.764310000000     0.489510000000     0.773170000000    -0.064511   
C204     C      0.786620000000     0.466860000000     0.795870000000     0.0217357  
C205     C      0.787510000000     0.427770000000     0.790620000000    -0.0990697  
C206     C      0.765760000000     0.411770000000     0.762180000000     0.0226683  
C207     C      0.718650000000     0.497620000000     0.720680000000     0.0228191  
C208     C      0.716200000000     0.491000000000     0.682020000000    -0.0646811  
C209     C      0.693860000000     0.513700000000     0.659410000000     0.0225423  
C210     C      0.673450000000     0.543470000000     0.675000000000    -0.0988332  
C211     C      0.675800000000     0.550090000000     0.713620000000     0.0216609  
C212     C      0.698170000000     0.527430000000     0.736220000000    -0.0644951  
C213     C      0.929630000000     0.471500000000     0.977170000000    -0.0651097  
C214     C      0.968390000000     0.471150000000     0.972160000000     0.0229448  
C215     C      0.983680000000     0.447920000000     0.944350000000    -0.0649442  
C216     C      0.960700000000     0.425680000000     0.921940000000     0.0225022  
C217     C      0.921990000000     0.426060000000     0.926990000000    -0.100904   
C218     C      0.906680000000     0.449120000000     0.954870000000     0.0231818  
C219     C      0.992780000000     0.495020000000     0.995760000000     0.0231979  
C220     C      0.982880000000     0.532350000000     0.003800000000    -0.0653342  
C221     C      0.005880000000     0.554870000000     0.025900000000     0.0237979  
C222     C      0.039180000000     0.540480000000     0.040560000000    -0.102424   
C223     C      0.049090000000     0.503160000000     0.032630000000     0.0232667  
C224     C      0.026170000000     0.480680000000     0.010380000000    -0.0653093  
H1       H      0.012300000000     0.030520000000     0.448840000000     0.0486786  
H2       H      0.051880000000     0.069920000000     0.488130000000     0.039166   
H3       H      0.012300000000     0.011650000000     0.586250000000     0.0398487  
H4       H      0.972770000000     0.972210000000     0.546910000000     0.0487064  
H5       H      0.981570000000     0.922130000000     0.497750000000     0.0485474  
H6       H      0.942900000000     0.882380000000     0.457900000000     0.0415977  
H7       H      0.904940000000     0.980600000000     0.398170000000     0.0399293  
H8       H      0.943680000000     0.020330000000     0.438020000000     0.0483208  
H9       H      0.708960000000     0.743580000000     0.421430000000     0.0482639  
H10      H      0.748230000000     0.782330000000     0.381290000000     0.0410522  
H11      H      0.826370000000     0.796250000000     0.471890000000     0.0408087  
H12      H      0.786910000000     0.757830000000     0.512150000000     0.0479993  
H13      H      0.766180000000     0.691980000000     0.517990000000     0.0482886  
H14      H      0.726680000000     0.653490000000     0.558130000000     0.0399974  
H15      H      0.629690000000     0.711940000000     0.517130000000     0.0404876  
H16      H      0.669220000000     0.750700000000     0.477270000000     0.0484066  
H17      H      0.171870000000     0.265230000000     0.499310000000     0.0484962  
H18      H      0.132110000000     0.225550000000     0.538170000000     0.0398775  
H19      H      0.218960000000     0.141950000000     0.543490000000     0.0391637  
H20      H      0.258760000000     0.181750000000     0.504750000000     0.048735   
H21      H      0.291220000000     0.244900000000     0.509960000000     0.0485013  
H22      H      0.330850000000     0.283800000000     0.470180000000     0.0397219  
H23      H      0.239100000000     0.300720000000     0.394160000000     0.0391092  
H24      H      0.199450000000     0.261940000000     0.434070000000     0.04874    
H25      H      0.441830000000     0.519200000000     0.445990000000     0.0482737  
H26      H      0.402050000000     0.479820000000     0.406990000000     0.0405691  
H27      H      0.458720000000     0.380880000000     0.447470000000     0.0406068  
H28      H      0.498740000000     0.420300000000     0.486200000000     0.0482973  
H29      H      0.493260000000     0.460930000000     0.541960000000     0.0484951  
H30      H      0.532210000000     0.500560000000     0.581570000000     0.0402616  
H31      H      0.546180000000     0.578680000000     0.490270000000     0.0402075  
H32      H      0.507540000000     0.538870000000     0.450550000000     0.0482229  
H33      H      0.701360000000     0.965610000000     0.289390000000     0.0487241  
H34      H      0.741770000000     0.926240000000     0.327860000000     0.0401565  
H35      H      0.830420000000     0.939980000000     0.247590000000     0.0394771  
H36      H      0.790000000000     0.979500000000     0.209220000000     0.048528   
H37      H      0.758550000000     0.043150000000     0.214100000000     0.0487307  
H38      H      0.718090000000     0.081690000000     0.174830000000     0.0399741  
H39      H      0.630540000000     0.999440000000     0.186130000000     0.0393934  
H40      H      0.670990000000     0.961000000000     0.225530000000     0.0485809  
H41      H      0.444520000000     0.200540000000     0.275330000000     0.0486864  
H42      H      0.404940000000     0.239750000000     0.314830000000     0.0390937  
H43      H      0.448740000000     0.339170000000     0.261440000000     0.0397952  
H44      H      0.488260000000     0.299910000000     0.221900000000     0.0487583  
H45      H      0.479730000000     0.252320000000     0.170170000000     0.0485305  
H46      H      0.518780000000     0.212680000000     0.130570000000     0.0416293  
H47      H      0.552370000000     0.148740000000     0.227460000000     0.0400061  
H48      H      0.513240000000     0.188370000000     0.267020000000     0.0483132  
H49      H      0.200010000000     0.929270000000     0.748390000000     0.0482163  
H50      H      0.239230000000     0.889430000000     0.787390000000     0.0397772  
H51      H      0.324320000000     0.974990000000     0.787480000000     0.0403502  
H52      H      0.285580000000     0.014470000000     0.747690000000     0.0481203  
H53      H      0.229380000000     0.051270000000     0.748810000000     0.0479492  
H54      H      0.190920000000     0.090650000000     0.708590000000     0.0412577  
H55      H      0.157310000000     0.992650000000     0.646000000000     0.0406687  
H56      H      0.196480000000     0.953350000000     0.685540000000     0.0480363  
H57      H      0.424910000000     0.754980000000     0.701010000000     0.0483866  
H58      H      0.384780000000     0.793700000000     0.740330000000     0.039344   
H59      H      0.464470000000     0.785770000000     0.830270000000     0.0395747  
H60      H      0.504420000000     0.746740000000     0.791100000000     0.0485819  
H61      H      0.543230000000     0.752640000000     0.734490000000     0.0483521  
H62      H      0.583330000000     0.713520000000     0.695550000000     0.0401573  
H63      H      0.487520000000     0.650710000000     0.658290000000     0.0398032  
H64      H      0.447470000000     0.689570000000     0.697530000000     0.0484218  
H65      H      0.441280000000     0.941050000000     0.015480000000     0.0479648  
H66      H      0.401470000000     0.902560000000     0.975770000000     0.0405756  
H67      H      0.447450000000     0.955980000000     0.877760000000     0.0412548  
H68      H      0.486580000000     0.995210000000     0.917430000000     0.0479115  
H69      H      0.539750000000     0.991510000000     0.958250000000     0.0482316  
H70      H      0.578750000000     0.031160000000     0.997680000000     0.0393468  
H71      H      0.488090000000     0.043870000000     0.075780000000     0.039417   
H72      H      0.448740000000     0.005070000000     0.035930000000     0.0483085  
H73      H      0.018820000000     0.768380000000     0.187760000000     0.0479151  
H74      H      0.058830000000     0.728630000000     0.149490000000     0.0405884  
H75      H      0.012830000000     0.629920000000     0.202250000000     0.0412369  
H76      H      0.973510000000     0.669620000000     0.241250000000     0.0479231  
H77      H      0.920340000000     0.710580000000     0.237730000000     0.048195   
H78      H      0.881350000000     0.749930000000     0.277460000000     0.0393026  
H79      H      0.971890000000     0.828520000000     0.290340000000     0.0394998  
H80      H      0.011250000000     0.788740000000     0.251470000000     0.0482889  
H81      H      0.234270000000     0.749660000000     0.045710000000     0.0484797  
H82      H      0.195550000000     0.709790000000     0.085410000000     0.0409243  
H83      H      0.159010000000     0.648230000000     0.988090000000     0.0401062  
H84      H      0.197600000000     0.688160000000     0.948420000000     0.0484114  
H85      H      0.264910000000     0.700220000000     0.937150000000     0.0484086  
H86      H      0.303380000000     0.739990000000     0.897200000000     0.0401224  
H87      H      0.264690000000     0.838260000000     0.956350000000     0.040939   
H88      H      0.226080000000     0.798460000000     0.996220000000     0.0484982  
H89      H      0.175660000000     0.501370000000     0.262110000000     0.0481152  
H90      H      0.136980000000     0.541110000000     0.222530000000     0.0403787  
H91      H      0.221300000000     0.538760000000     0.136660000000     0.0396967  
H92      H      0.260500000000     0.499820000000     0.176600000000     0.0481709  
H93      H      0.263710000000     0.437080000000     0.201570000000     0.0479718  
H94      H      0.302670000000     0.397480000000     0.241040000000     0.0407117  
H95      H      0.270290000000     0.462210000000     0.337790000000     0.0415457  
H96      H      0.232080000000     0.502490000000     0.298240000000     0.0478774  
H97      H      0.948820000000     0.201240000000     0.783930000000     0.0482754  
H98      H      0.910460000000     0.241210000000     0.823770000000     0.0402818  
H99      H      0.930030000000     0.334980000000     0.749710000000     0.0401574  
H100     H      0.968690000000     0.295100000000     0.710070000000     0.0485027  
H101     H      0.962690000000     0.240670000000     0.667580000000     0.0482819  
H102     H      0.002780000000     0.201810000000     0.628360000000     0.0405792  
H103     H      0.054750000000     0.155870000000     0.727120000000     0.0405089  
H104     H      0.014930000000     0.194990000000     0.766330000000     0.0483325  
H105     H      0.675170000000     0.266770000000     0.008570000000     0.0479625  
H106     H      0.635640000000     0.226440000000     0.046870000000     0.0409302  
H107     H      0.711160000000     0.133810000000     0.029130000000     0.0410879  
H108     H      0.750470000000     0.174010000000     0.990490000000     0.0482074  
H109     H      0.791760000000     0.228890000000     0.997430000000     0.048382   
H110     H      0.831220000000     0.268540000000     0.958360000000     0.0404645  
H111     H      0.733710000000     0.313470000000     0.903940000000     0.0400854  
H112     H      0.694270000000     0.273530000000     0.942710000000     0.0482767  
H113     H      0.764530000000     0.519600000000     0.777640000000     0.0481768  
H114     H      0.803180000000     0.480000000000     0.817500000000     0.0402899  
H115     H      0.765810000000     0.381700000000     0.757540000000     0.0405399  
H116     H      0.726640000000     0.421190000000     0.718090000000     0.0482482  
H117     H      0.731960000000     0.468570000000     0.669100000000     0.0482394  
H118     H      0.692670000000     0.507990000000     0.629700000000     0.0406797  
H119     H      0.660310000000     0.572780000000     0.726440000000     0.0402513  
H120     H      0.699070000000     0.532970000000     0.765970000000     0.0481787  
H121     H      0.013390000000     0.447340000000     0.939530000000     0.0484491  
H122     H      0.973290000000     0.408210000000     0.900620000000     0.039844   
H123     H      0.876930000000     0.449950000000     0.959450000000     0.0400994  
H124     H      0.917060000000     0.488780000000     0.998640000000     0.048348   
H125     H      0.957550000000     0.544340000000     0.992590000000     0.0485301  
H126     H      0.997550000000     0.583570000000     0.031490000000     0.0396193  
H127     H      0.074560000000     0.491280000000     0.043610000000     0.0393819  
H128     H      0.034350000000     0.451900000000     0.005030000000     0.0483761  
In1      In     0.853270000000     0.359980000000     0.859350000000     2.39618    
In2      In     0.107500000000     0.607920000000     0.107350000000     2.38992    
In3      In     0.353380000000     0.860000000000     0.855550000000     2.38975    
In4      In     0.603440000000     0.108390000000     0.107890000000     2.38876    
In5      In     0.357070000000     0.359490000000     0.359810000000     2.39076    
In6      In     0.607160000000     0.611790000000     0.607320000000     2.39534    
In7      In     0.856800000000     0.860070000000     0.355270000000     2.38873    
In8      In     0.102640000000     0.111590000000     0.607390000000     2.39253    
O1       O      0.796620000000     0.338150000000     0.878420000000    -0.489461   
O2       O      0.844290000000     0.318700000000     0.907430000000    -0.485387   
O3       O      0.830800000000     0.416950000000     0.840700000000    -0.489627   
O4       O      0.863010000000     0.400760000000     0.907730000000    -0.487408   
O5       O      0.877750000000     0.303220000000     0.842680000000    -0.488991   
O6       O      0.910010000000     0.383040000000     0.876600000000    -0.492106   
O7       O      0.812370000000     0.368590000000     0.811320000000    -0.484407   
O8       O      0.890350000000     0.350170000000     0.808420000000    -0.486262   
O9       O      0.151360000000     0.653540000000     0.099020000000    -0.479967   
O10      O      0.128430000000     0.627930000000     0.050560000000    -0.490663   
O11      O      0.061590000000     0.616730000000     0.150530000000    -0.479892   
O12      O      0.056480000000     0.598360000000     0.070500000000    -0.490795   
O13      O      0.160840000000     0.574790000000     0.119150000000    -0.487936   
O14      O      0.092610000000     0.552170000000     0.079290000000    -0.493697   
O15      O      0.087000000000     0.665260000000     0.127410000000    -0.482997   
O16      O      0.121210000000     0.578900000000     0.162700000000    -0.486618   
O17      O      0.373660000000     0.880240000000     0.912640000000    -0.483491   
O18      O      0.398930000000     0.903790000000     0.864440000000    -0.479257   
O19      O      0.367580000000     0.830840000000     0.800390000000    -0.49372    
O20      O      0.333170000000     0.802920000000     0.876200000000    -0.490778   
O21      O      0.339980000000     0.915270000000     0.825840000000    -0.486275   
O22      O      0.309250000000     0.851670000000     0.900660000000    -0.479799   
O23      O      0.404900000000     0.823760000000     0.845680000000    -0.490857   
O24      O      0.299820000000     0.871900000000     0.823000000000    -0.487898   
O25      O      0.618040000000     0.164700000000     0.081000000000    -0.481536   
O26      O      0.653320000000     0.118330000000     0.069620000000    -0.479222   
O27      O      0.560450000000     0.154630000000     0.116730000000    -0.47567    
O28      O      0.549440000000     0.076990000000     0.094860000000    -0.491998   
O29      O      0.655340000000     0.099530000000     0.143460000000    -0.486397   
O30      O      0.592670000000     0.073880000000     0.054910000000    -0.492034   
O31      O      0.584270000000     0.129540000000     0.165000000000    -0.488392   
O32      O      0.616470000000     0.054740000000     0.140420000000    -0.492084   
O33      O      0.375100000000     0.302780000000     0.336070000000    -0.494639   
O34      O      0.403200000000     0.351430000000     0.316670000000    -0.488265   
O35      O      0.344080000000     0.328940000000     0.414520000000    -0.489364   
O36      O      0.406410000000     0.368290000000     0.399140000000    -0.484885   
O37      O      0.333580000000     0.377100000000     0.303260000000    -0.486139   
O38      O      0.376190000000     0.416470000000     0.382260000000    -0.483126   
O39      O      0.302720000000     0.328450000000     0.372420000000    -0.489987   
O40      O      0.314640000000     0.406370000000     0.351460000000    -0.476822   
O41      O      0.663700000000     0.629380000000     0.584060000000    -0.490079   
O42      O      0.616470000000     0.660470000000     0.566730000000    -0.484869   
O43      O      0.570840000000     0.560110000000     0.597230000000    -0.485439   
O44      O      0.647190000000     0.562850000000     0.616250000000    -0.483137   
O45      O      0.597250000000     0.660970000000     0.647180000000    -0.486843   
O46      O      0.631090000000     0.594530000000     0.663870000000    -0.489567   
O47      O      0.580880000000     0.596380000000     0.551280000000    -0.489258   
O48      O      0.550700000000     0.627830000000     0.631840000000    -0.492348   
O49      O      0.874730000000     0.917420000000     0.377580000000    -0.4885     
O50      O      0.900370000000     0.868970000000     0.400730000000    -0.476149   
O51      O      0.844250000000     0.893410000000     0.302170000000    -0.49158    
O52      O      0.910630000000     0.847360000000     0.323600000000    -0.491629   
O53      O      0.843020000000     0.831910000000     0.410950000000    -0.482526   
O54      O      0.867500000000     0.807090000000     0.320510000000    -0.492708   
O55      O      0.804640000000     0.895320000000     0.346160000000    -0.485404   
O56      O      0.806620000000     0.822040000000     0.365360000000    -0.478909   
O57      O      0.083130000000     0.089660000000     0.550670000000    -0.494234   
O58      O      0.057060000000     0.067650000000     0.599140000000    -0.488462   
O59      O      0.145700000000     0.103750000000     0.653570000000    -0.479245   
O60      O      0.155860000000     0.122690000000     0.574050000000    -0.489592   
O61      O      0.054050000000     0.152100000000     0.615860000000    -0.485222   
O62      O      0.117660000000     0.167580000000     0.579950000000    -0.489058   
O63      O      0.126440000000     0.054990000000     0.625210000000    -0.486633   
O64      O      0.082150000000     0.132600000000     0.664160000000    -0.48423    


