data_structure

_audit_creation_method RASPA-1.0
_audit_creation_date 2023-5-22
_audit_author_name 'Poobodin Mano'

_cell_length_a    25.3334
_cell_length_b    26.1776
_cell_length_c    23.2078
_cell_angle_alpha 90
_cell_angle_beta  90
_cell_angle_gamma 90
_cell_volume      15390.7

_symmetry_cell_setting          triclinic
_symmetry_space_group_name_Hall 'P 1'
_symmetry_space_group_name_H-M  'P 1'
_symmetry_Int_Tables_number     1

_symmetry_equiv_pos_as_xyz 'x,y,z'

loop_
_atom_site_label
_atom_site_type_symbol
_atom_site_fract_x
_atom_site_fract_y
_atom_site_fract_z
_atom_site_charge
C1       C      0.942560000000     0.425640000000     0.002220000000     0.41495    
C2       C      0.822990000000     0.429240000000     0.863260000000     0.416748   
C3       C      0.939460000000     0.299330000000     0.883930000000     0.407618   
C4       C      0.803470000000     0.320070000000     0.003040000000     0.4064     
C5       C      0.082630000000     0.556580000000     0.097660000000     0.411542   
C6       C      0.194380000000     0.551290000000     0.245860000000     0.407847   
C7       C      0.205780000000     0.672410000000     0.113690000000     0.412252   
C8       C      0.073510000000     0.669010000000     0.241590000000     0.402814   
C9       C      0.331240000000     0.796460000000     0.978620000000     0.411341   
C10      C      0.447770000000     0.817320000000     0.833790000000     0.413377   
C11      C      0.310300000000     0.922580000000     0.848750000000     0.409828   
C12      C      0.435160000000     0.923320000000     0.980980000000     0.408333   
C13      C      0.689510000000     0.178250000000     0.115580000000     0.414378   
C14      C      0.570960000000     0.044450000000     0.103520000000     0.408037   
C15      C      0.693020000000     0.046910000000     0.228390000000     0.40787    
C16      C      0.556810000000     0.156340000000     0.239960000000     0.401378   
C17      C      0.313570000000     0.407150000000     0.347660000000     0.412856   
C18      C      0.431960000000     0.285230000000     0.368140000000     0.41491    
C19      C      0.425660000000     0.420370000000     0.489560000000     0.412849   
C20      C      0.307730000000     0.296440000000     0.495950000000     0.408977   
C21      C      0.684590000000     0.536840000000     0.729740000000     0.410736   
C22      C      0.689330000000     0.665180000000     0.602930000000     0.40567    
C23      C      0.565410000000     0.536030000000     0.613440000000     0.404286   
C24      C      0.567130000000     0.673780000000     0.725530000000     0.405757   
C25      C      0.927220000000     0.784650000000     0.347870000000     0.404564   
C26      C      0.939770000000     0.920110000000     0.463640000000     0.412342   
C27      C      0.807140000000     0.905370000000     0.340530000000     0.397778   
C28      C      0.804160000000     0.803340000000     0.481270000000     0.417566   
C29      C      0.055960000000     0.168010000000     0.747390000000     0.411053   
C30      C      0.168630000000     0.166820000000     0.598280000000     0.403729   
C31      C      0.175660000000     0.059130000000     0.751680000000     0.410166   
C32      C      0.055960000000     0.049720000000     0.602380000000     0.41498    
C33      C      0.025600000000     0.938130000000     0.510260000000    -0.00735616 
C34      C      0.966090000000     0.009570000000     0.481430000000     0.0083463  
C35      C      0.035410000000     0.963390000000     0.568600000000    -0.0135093  
C36      C      0.976450000000     0.037290000000     0.538940000000    -0.0575004  
C37      C      0.975280000000     0.094240000000     0.527390000000     0.322071   
C38      C      0.773180000000     0.712530000000     0.590240000000    -0.00948439 
C39      C      0.706860000000     0.707130000000     0.509450000000     0.00861386 
C40      C      0.780960000000     0.769520000000     0.577230000000    -0.0131375  
C41      C      0.713890000000     0.764550000000     0.498710000000    -0.0553287  
C42      C      0.698170000000     0.779020000000     0.437900000000     0.320973   
C43      C      0.245350000000     0.177690000000     0.533120000000    -0.00855019 
C44      C      0.181080000000     0.249290000000     0.547720000000     0.00745968 
C45      C      0.291200000000     0.214380000000     0.544920000000    -0.0138779  
C46      C      0.227150000000     0.286110000000     0.560180000000    -0.054488   
C47      C      0.211610000000     0.340680000000     0.546760000000     0.318991   
C48      C      0.545620000000     0.486290000000     0.525640000000    -0.00895503 
C49      C      0.494590000000     0.470900000000     0.616720000000     0.00826323 
C50      C      0.494190000000     0.486760000000     0.491530000000    -0.0116896  
C51      C      0.442730000000     0.469740000000     0.581900000000    -0.0575299  
C52      C      0.402890000000     0.436120000000     0.612360000000     0.321878   
C53      C      0.774840000000     0.995470000000     0.232260000000    -0.00785904 
C54      C      0.718390000000     0.007330000000     0.320930000000     0.00132574 
C55      C      0.779130000000     0.938300000000     0.245310000000    -0.0129306  
C56      C      0.722290000000     0.950010000000     0.333540000000    -0.0313631  
C57      C      0.719780000000     0.939710000000     0.397670000000     0.237004   
C58      C      0.467130000000     0.190590000000     0.256410000000    -0.00856337 
C59      C      0.529600000000     0.180250000000     0.338500000000     0.00750673 
C60      C      0.453390000000     0.244480000000     0.276310000000    -0.0127218  
C61      C      0.515390000000     0.233630000000     0.361690000000    -0.0564882  
C62      C      0.517720000000     0.231470000000     0.426880000000     0.322528   
C63      C      0.294230000000     0.992230000000     0.778850000000    -0.00833119 
C64      C      0.218040000000     0.944200000000     0.822870000000     0.00879706 
C65      C      0.264990000000     0.042520000000     0.789550000000    -0.013443   
C66      C      0.189380000000     0.995320000000     0.833020000000    -0.0571601  
C67      C      0.130220000000     0.987770000000     0.836400000000     0.321307   
C68      C      0.479490000000     0.712010000000     0.744060000000    -0.00923513 
C69      C      0.558250000000     0.735890000000     0.805120000000     0.00878056 
C70      C      0.461920000000     0.768000000000     0.744450000000    -0.0130399  
C71      C      0.540430000000     0.792030000000     0.803090000000    -0.0576056  
C72      C      0.562510000000     0.821610000000     0.853720000000     0.321813   
C73      C      0.456480000000     0.008910000000     0.019550000000    -0.00721743 
C74      C      0.493690000000     0.930240000000     0.065880000000     0.0102995  
C75      C      0.511010000000     0.033750000000     0.021100000000    -0.0139697  
C76      C      0.548580000000     0.955330000000     0.068170000000    -0.0588935  
C77      C      0.579770000000     0.933210000000     0.117950000000     0.322729   
C78      C      0.963970000000     0.697720000000     0.334760000000    -0.0103093  
C79      C      0.973520000000     0.763940000000     0.256980000000     0.000424814
C80      C      0.023100000000     0.685790000000     0.331050000000    -0.0119551  
C81      C      0.032940000000     0.753350000000     0.253790000000    -0.031208   
C82      C      0.054320000000     0.762520000000     0.193740000000     0.229417   
C83      C      0.301400000000     0.708560000000     0.000490000000    -0.00794052 
C84      C      0.303630000000     0.774960000000     0.077630000000     0.00936449 
C85      C      0.246710000000     0.691400000000     0.020510000000    -0.013295   
C86      C      0.248950000000     0.758190000000     0.099360000000    -0.0578993  
C87      C      0.245710000000     0.767940000000     0.163610000000     0.322573   
C88      C      0.278350000000     0.528350000000     0.293970000000    -0.00938463 
C89      C      0.197040000000     0.474730000000     0.308230000000     0.00874904 
C90      C      0.309930000000     0.479960000000     0.280400000000    -0.0129975  
C91      C      0.229020000000     0.426570000000     0.293250000000    -0.0553432  
C92      C      0.204170000000     0.379040000000     0.318710000000     0.318887   
C93      C      0.026380000000     0.277800000000     0.842350000000    -0.00661259 
C94      C      0.960790000000     0.209120000000     0.863070000000     0.00820962 
C95      C      0.038750000000     0.253910000000     0.783980000000    -0.0130617  
C96      C      0.973550000000     0.182680000000     0.805310000000    -0.0562487  
C97      C      0.968620000000     0.125550000000     0.814140000000     0.321751   
C98      C      0.759020000000     0.244400000000     0.120200000000    -0.0105465  
C99      C      0.726180000000     0.210940000000     0.024260000000     0.000583809
C100     C      0.759780000000     0.298640000000     0.095520000000    -0.0108861  
C101     C      0.724660000000     0.265760000000     0.001200000000    -0.0309204  
C102     C      0.733200000000     0.267090000000     0.936670000000     0.22855    
C103     C      0.705440000000     0.496610000000     0.823160000000    -0.00815933 
C104     C      0.749080000000     0.465700000000     0.732670000000     0.00851798 
C105     C      0.758970000000     0.498990000000     0.852860000000    -0.0120618  
C106     C      0.802990000000     0.464950000000     0.763800000000    -0.058576   
C107     C      0.838060000000     0.424180000000     0.737800000000     0.321626   
C108     C      0.004150000000     0.545920000000     0.035300000000    -0.00792037 
C109     C      0.071480000000     0.476360000000     0.042750000000     0.00875578 
C110     C      0.960480000000     0.507770000000     0.049560000000    -0.0129249  
C111     C      0.027990000000     0.437300000000     0.057230000000    -0.0569811  
C112     C      0.045200000000     0.384900000000     0.036870000000     0.321069   
H1       H      0.008000000000     0.946120000000     0.600550000000     0.0487674  
H2       H      0.028260000000     0.895970000000     0.515340000000     0.0499126  
H3       H      0.943120000000     0.027570000000     0.568240000000     0.0716162  
H4       H      0.076260000000     0.953820000000     0.582440000000     0.0540898  
H5       H      0.057350000000     0.950330000000     0.480150000000     0.0445503  
H6       H      0.994050000000     0.024080000000     0.448230000000     0.0498479  
H7       H      0.925460000000     0.018810000000     0.466440000000     0.0529028  
H8       H      0.013300000000     0.152280000000     0.486690000000     0.190122   
H9       H      0.753910000000     0.791730000000     0.605450000000     0.0464272  
H10      H      0.778340000000     0.706140000000     0.637260000000     0.0518842  
H11      H      0.685380000000     0.783820000000     0.528150000000     0.0635762  
H12      H      0.822120000000     0.780360000000     0.588490000000     0.0525736  
H13      H      0.804560000000     0.690750000000     0.567450000000     0.0465118  
H14      H      0.733640000000     0.685660000000     0.480170000000     0.0551044  
H15      H      0.665580000000     0.695850000000     0.499100000000     0.0544959  
H16      H      0.699750000000     0.756430000000     0.354160000000     0.188252   
H17      H      0.301140000000     0.212020000000     0.591530000000     0.0474642  
H18      H      0.256440000000     0.138710000000     0.547780000000     0.0527428  
H19      H      0.234050000000     0.284040000000     0.607520000000     0.0679407  
H20      H      0.326310000000     0.201130000000     0.520400000000     0.0560206  
H21      H      0.238770000000     0.176190000000     0.485780000000     0.0464282  
H22      H      0.171110000000     0.251360000000     0.501080000000     0.0551406  
H23      H      0.145630000000     0.261390000000     0.572520000000     0.0560977  
H24      H      0.218350000000     0.413940000000     0.574630000000     0.196067   
H25      H      0.480070000000     0.526920000000     0.488840000000     0.0466416  
H26      H      0.574400000000     0.512280000000     0.504460000000     0.0547105  
H27      H      0.427290000000     0.509600000000     0.582110000000     0.0665001  
H28      H      0.502590000000     0.473790000000     0.446860000000     0.0559293  
H29      H      0.562160000000     0.446950000000     0.524310000000     0.0506811  
H30      H      0.509350000000     0.431160000000     0.622190000000     0.0543413  
H31      H      0.486640000000     0.486660000000     0.660390000000     0.0527638  
H32      H      0.390720000000     0.365600000000     0.646450000000     0.19135    
H33      H      0.747700000000     0.918080000000     0.220840000000     0.0529267  
H34      H      0.775750000000     0.001150000000     0.184800000000     0.0558307  
H35      H      0.687500000000     0.931630000000     0.312870000000     0.0634836  
H36      H      0.818040000000     0.923860000000     0.230260000000     0.0550515  
H37      H      0.809910000000     0.014920000000     0.250940000000     0.0459738  
H38      H      0.749860000000     0.027530000000     0.345450000000     0.04824    
H39      H      0.679660000000     0.022020000000     0.336280000000     0.0645783  
H40      H      0.675520000000     0.946370000000     0.470310000000     0.16829    
H41      H      0.477990000000     0.271980000000     0.251560000000     0.0446861  
H42      H      0.463240000000     0.188490000000     0.208740000000     0.0514781  
H43      H      0.546450000000     0.260410000000     0.346180000000     0.0674471  
H44      H      0.411470000000     0.251980000000     0.264850000000     0.0543031  
H45      H      0.438150000000     0.163610000000     0.275630000000     0.0466952  
H46      H      0.504210000000     0.151140000000     0.359850000000     0.0524961  
H47      H      0.571250000000     0.171380000000     0.349970000000     0.0561585  
H48      H      0.482770000000     0.201400000000     0.498010000000     0.189925   
H49      H      0.277230000000     0.057440000000     0.832400000000     0.0469167  
H50      H      0.337400000000     0.999120000000     0.782520000000     0.0529616  
H51      H      0.202620000000     0.008700000000     0.876260000000     0.0656406  
H52      H      0.277550000000     0.070830000000     0.756600000000     0.0539685  
H53      H      0.285900000000     0.979690000000     0.733990000000     0.0456547  
H54      H      0.204370000000     0.927610000000     0.781330000000     0.0532002  
H55      H      0.207520000000     0.916920000000     0.857790000000     0.0521903  
H56      H      0.067850000000     0.949910000000     0.801640000000     0.189247   
H57      H      0.478620000000     0.786870000000     0.705560000000     0.0447974  
H58      H      0.468160000000     0.694540000000     0.702180000000     0.0519775  
H59      H      0.558440000000     0.808380000000     0.763330000000     0.0642676  
H60      H      0.418210000000     0.769620000000     0.740760000000     0.0526707  
H61      H      0.457660000000     0.691510000000     0.778600000000     0.047065   
H62      H      0.543080000000     0.717950000000     0.845300000000     0.0542847  
H63      H      0.602140000000     0.734300000000     0.806390000000     0.0531896  
H64      H      0.577100000000     0.819040000000     0.939780000000     0.192802   
H65      H      0.530940000000     0.026010000000     0.979300000000     0.0508123  
H66      H      0.434570000000     0.023280000000     0.981330000000     0.0525803  
H67      H      0.568920000000     0.944240000000     0.027470000000     0.0698291  
H68      H      0.505770000000     0.075790000000     0.024690000000     0.0566402  
H69      H      0.434480000000     0.020780000000     0.058800000000     0.0462143  
H70      H      0.473000000000     0.937110000000     0.107460000000     0.0532385  
H71      H      0.498260000000     0.888220000000     0.060640000000     0.054044   
H72      H      0.578200000000     0.918410000000     0.203880000000     0.189984   
H73      H      0.043800000000     0.708160000000     0.364930000000     0.0449607  
H74      H      0.950190000000     0.691250000000     0.379650000000     0.0517301  
H75      H      0.052400000000     0.780990000000     0.283380000000     0.0573053  
H76      H      0.029530000000     0.644520000000     0.339970000000     0.0514321  
H77      H      0.942610000000     0.670580000000     0.306210000000     0.0447538  
H78      H      0.953110000000     0.739670000000     0.224510000000     0.0464755  
H79      H      0.965620000000     0.804570000000     0.245920000000     0.0633879  
H80      H      0.062270000000     0.813930000000     0.128710000000     0.165401   
H81      H      0.216620000000     0.710750000000     0.993280000000     0.0465965  
H82      H      0.304760000000     0.702340000000     0.953230000000     0.0507781  
H83      H      0.219630000000     0.783560000000     0.077960000000     0.0686153  
H84      H      0.243300000000     0.649640000000     0.012480000000     0.053028   
H85      H      0.331480000000     0.684290000000     0.022130000000     0.0455982  
H86      H      0.334670000000     0.754450000000     0.102480000000     0.0517408  
H87      H      0.308790000000     0.816540000000     0.085900000000     0.052973   
H88      H      0.203490000000     0.804370000000     0.225650000000     0.189524   
H89      H      0.309330000000     0.474130000000     0.232930000000     0.0459916  
H90      H      0.295020000000     0.560910000000     0.269190000000     0.0539045  
H91      H      0.226630000000     0.422500000000     0.245550000000     0.067706   
H92      H      0.351730000000     0.485900000000     0.293300000000     0.0538105  
H93      H      0.282980000000     0.536960000000     0.340620000000     0.0467091  
H94      H      0.197240000000     0.480020000000     0.355810000000     0.0548459  
H95      H      0.155350000000     0.469630000000     0.294320000000     0.0570675  
H96      H      0.191780000000     0.303410000000     0.304730000000     0.191839   
H97      H      0.014780000000     0.273810000000     0.750690000000     0.051331   
H98      H      0.032000000000     0.319850000000     0.839430000000     0.0544389  
H99      H      0.942970000000     0.195090000000     0.773800000000     0.0734881  
H100     H      0.080950000000     0.261500000000     0.773960000000     0.0564178  
H101     H      0.055160000000     0.262850000000     0.874380000000     0.0456192  
H102     H      0.985270000000     0.191880000000     0.897850000000     0.053295   
H103     H      0.918670000000     0.201980000000     0.874060000000     0.0556952  
H104     H      0.001440000000     0.064150000000     0.853910000000     0.19963    
H105     H      0.721970000000     0.317590000000     0.107180000000     0.0434105  
H106     H      0.749110000000     0.246310000000     0.166810000000     0.0518842  
H107     H      0.684510000000     0.280950000000     0.010440000000     0.0561445  
H108     H      0.792570000000     0.320660000000     0.115450000000     0.051399   
H109     H      0.799460000000     0.228240000000     0.116380000000     0.0468986  
H110     H      0.764430000000     0.193110000000     0.011930000000     0.0498276  
H111     H      0.693930000000     0.188390000000     0.003960000000     0.0617668  
H112     H      0.705110000000     0.244350000000     0.858770000000     0.166251   
H113     H      0.775560000000     0.537920000000     0.846440000000     0.0470401  
H114     H      0.679380000000     0.526650000000     0.841510000000     0.0525846  
H115     H      0.821710000000     0.502600000000     0.754810000000     0.0681264  
H116     H      0.752890000000     0.493710000000     0.899920000000     0.054479   
H117     H      0.687300000000     0.458800000000     0.832460000000     0.0469146  
H118     H      0.731070000000     0.426990000000     0.735130000000     0.052571   
H119     H      0.755210000000     0.474830000000     0.686330000000     0.0527867  
H120     H      0.911490000000     0.410580000000     0.706210000000     0.192123   
H121     H      0.953410000000     0.509160000000     0.096830000000     0.045305   
H122     H      0.992830000000     0.584380000000     0.051420000000     0.0508094  
H123     H      0.024670000000     0.436450000000     0.105090000000     0.0681622  
H124     H      0.923430000000     0.520220000000     0.028100000000     0.0533883  
H125     H      0.007950000000     0.548170000000     0.987630000000     0.046452   
H126     H      0.078390000000     0.476270000000     0.995390000000     0.0527005  
H127     H      0.108990000000     0.464920000000     0.064100000000     0.053504   
H128     H      0.069860000000     0.344240000000     0.967270000000     0.187221   
In1      In     0.876850000000     0.368350000000     0.937210000000     2.4201     
In2      In     0.138900000000     0.611980000000     0.174090000000     2.40905    
In3      In     0.379800000000     0.863840000000     0.907870000000     2.40432    
In4      In     0.627540000000     0.109240000000     0.170410000000     2.40819    
In5      In     0.370100000000     0.352500000000     0.425260000000     2.42675    
In6      In     0.626990000000     0.604510000000     0.668340000000     2.41172    
In7      In     0.872820000000     0.853210000000     0.411630000000     2.3926     
In8      In     0.113810000000     0.109470000000     0.674610000000     2.41005    
N1       N      0.025990000000     0.019150000000     0.566980000000    -0.152806   
N2       N      0.974440000000     0.954330000000     0.487050000000    -0.169522   
N3       N      0.767920000000     0.780060000000     0.516480000000    -0.154752   
N4       N      0.721280000000     0.694900000000     0.569370000000    -0.167803   
N5       N      0.275890000000     0.267480000000     0.531080000000    -0.152311   
N6       N      0.197070000000     0.196580000000     0.561160000000    -0.166443   
N7       N      0.453660000000     0.455660000000     0.520900000000    -0.153604   
N8       N      0.535280000000     0.500320000000     0.585920000000    -0.166204   
N9       N      0.770890000000     0.929660000000     0.307180000000    -0.159092   
N10      N      0.726830000000     0.016740000000     0.258950000000    -0.164243   
N11      N      0.463860000000     0.251950000000     0.338480000000    -0.153133   
N12      N      0.520230000000     0.177110000000     0.276230000000    -0.166966   
N13      N      0.207520000000     0.033440000000     0.789840000000    -0.15397    
N14      N      0.275490000000     0.952540000000     0.819000000000    -0.16835    
N15      N      0.482140000000     0.793990000000     0.796320000000    -0.155083   
N16      N      0.536570000000     0.707600000000     0.755550000000    -0.168163   
N17      N      0.543310000000     0.012010000000     0.068130000000    -0.152273   
N18      N      0.461860000000     0.953030000000     0.019520000000    -0.166309   
N19      N      0.043750000000     0.701030000000     0.274360000000    -0.162731   
N20      N      0.953890000000     0.750190000000     0.314700000000    -0.166212   
N21      N      0.236750000000     0.704750000000     0.081520000000    -0.153151   
N22      N      0.310330000000     0.762050000000     0.016500000000    -0.168261   
N23      N      0.285240000000     0.435390000000     0.308650000000    -0.154601   
N24      N      0.222080000000     0.519700000000     0.281540000000    -0.167272   
N25      N      0.025850000000     0.198830000000     0.782260000000    -0.150649   
N26      N      0.972890000000     0.263910000000     0.860700000000    -0.165474   
N27      N      0.764030000000     0.296460000000     0.032520000000    -0.162927   
N28      N      0.722280000000     0.211430000000     0.087700000000    -0.168418   
N29      N      0.795380000000     0.461160000000     0.827280000000    -0.154694   
N30      N      0.712760000000     0.501890000000     0.760690000000    -0.168399   
N31      N      0.976530000000     0.455290000000     0.033740000000    -0.154298   
N32      N      0.054230000000     0.527810000000     0.059730000000    -0.168685   
O1       O      0.839410000000     0.346450000000     0.026170000000    -0.47892    
O2       O      0.806570000000     0.317660000000     0.949160000000    -0.484585   
O3       O      0.859160000000     0.399560000000     0.846720000000    -0.484838   
O4       O      0.903850000000     0.444210000000     0.975260000000    -0.502192   
O5       O      0.896560000000     0.287260000000     0.908040000000    -0.490988   
O6       O      0.947030000000     0.377860000000     0.997600000000    -0.488776   
O7       O      0.814570000000     0.427840000000     0.916680000000    -0.5056     
O8       O      0.949980000000     0.346480000000     0.885040000000    -0.487447   
O9       O      0.088870000000     0.625470000000     0.257650000000    -0.475833   
O10      O      0.089620000000     0.681520000000     0.192480000000    -0.478193   
O11      O      0.146460000000     0.543820000000     0.233950000000    -0.495587   
O12      O      0.126240000000     0.541970000000     0.117850000000    -0.501042   
O13      O      0.190450000000     0.682530000000     0.164080000000    -0.480727   
O14      O      0.067240000000     0.599550000000     0.115670000000    -0.503161   
O15      O      0.214660000000     0.589870000000     0.221800000000    -0.497244   
O16      O      0.188390000000     0.630600000000     0.094280000000    -0.500197   
O17      O      0.438660000000     0.875220000000     0.980750000000    -0.484812   
O18      O      0.404300000000     0.941660000000     0.943530000000    -0.491163   
O19      O      0.462400000000     0.841500000000     0.877800000000    -0.488145   
O20      O      0.345590000000     0.784580000000     0.928260000000    -0.497057   
O21      O      0.359670000000     0.927390000000     0.844080000000    -0.495795   
O22      O      0.339630000000     0.842360000000     0.992110000000    -0.500231   
O23      O      0.398380000000     0.816460000000     0.826990000000    -0.499396   
O24      O      0.295770000000     0.887940000000     0.883110000000    -0.502734   
O25      O      0.547900000000     0.148180000000     0.187340000000    -0.49568    
O26      O      0.601680000000     0.142190000000     0.256910000000    -0.485656   
O27      O      0.567690000000     0.092400000000     0.099430000000    -0.486153   
O28      O      0.662890000000     0.144970000000     0.089450000000    -0.505153   
O29      O      0.650670000000     0.063940000000     0.249690000000    -0.485184   
O30      O      0.684320000000     0.177550000000     0.169540000000    -0.508712   
O31      O      0.602390000000     0.029410000000     0.142000000000    -0.485697   
O32      O      0.701900000000     0.060400000000     0.176960000000    -0.492935   
O33      O      0.349340000000     0.278970000000     0.473300000000    -0.495618   
O34      O      0.298270000000     0.342400000000     0.483280000000    -0.470346   
O35      O      0.389080000000     0.301940000000     0.347800000000    -0.504568   
O36      O      0.295820000000     0.367940000000     0.372420000000    -0.480893   
O37      O      0.385790000000     0.397020000000     0.508470000000    -0.485686   
O38      O      0.360070000000     0.418540000000     0.361990000000    -0.502765   
O39      O      0.443340000000     0.302720000000     0.417220000000    -0.488469   
O40      O      0.437340000000     0.409190000000     0.438310000000    -0.494758   
O41      O      0.614640000000     0.664890000000     0.738280000000    -0.49744    
O42      O      0.549860000000     0.648180000000     0.683530000000    -0.498848   
O43      O      0.702410000000     0.650450000000     0.652640000000    -0.50099    
O44      O      0.689570000000     0.542010000000     0.676010000000    -0.501928   
O45      O      0.559800000000     0.546500000000     0.666220000000    -0.496103   
O46      O      0.651050000000     0.566170000000     0.752560000000    -0.499821   
O47      O      0.644640000000     0.649740000000     0.586390000000    -0.495844   
O48      O      0.601600000000     0.560620000000     0.588280000000    -0.490368   
O49      O      0.845740000000     0.824090000000     0.500210000000    -0.497834   
O50      O      0.798710000000     0.806420000000     0.427480000000    -0.484876   
O51      O      0.948450000000     0.872740000000     0.461970000000    -0.503857   
O52      O      0.920370000000     0.830340000000     0.332540000000    -0.489963   
O53      O      0.801110000000     0.900760000000     0.394010000000    -0.471074   
O54      O      0.907180000000     0.773370000000     0.396000000000    -0.498653   
O55      O      0.897120000000     0.933520000000     0.440330000000    -0.503324   
O56      O      0.848550000000     0.884590000000     0.321280000000    -0.456664   
O57      O      0.044560000000     0.095470000000     0.613590000000    -0.488176   
O58      O      0.096740000000     0.033900000000     0.627930000000    -0.499111   
O59      O      0.127760000000     0.182750000000     0.623610000000    -0.488654   
O60      O      0.100570000000     0.181430000000     0.728440000000    -0.491742   
O61      O      0.126750000000     0.051490000000     0.747110000000    -0.482796   
O62      O      0.040830000000     0.124850000000     0.729710000000    -0.479201   
O63      O      0.181530000000     0.121540000000     0.610670000000    -0.491687   
O64      O      0.193250000000     0.092430000000     0.717410000000    -0.496942   
O65      O      0.939780000000     0.120470000000     0.547330000000    -0.231036   
O66      O      0.013190000000     0.115980000000     0.494590000000    -0.335543   
O67      O      0.676900000000     0.820170000000     0.428920000000    -0.235367   
O68      O      0.708880000000     0.747420000000     0.393360000000    -0.331821   
O69      O      0.186730000000     0.350800000000     0.503060000000    -0.218549   
O70      O      0.226940000000     0.378600000000     0.582490000000    -0.326478   
O71      O      0.358570000000     0.452360000000     0.622310000000    -0.232283   
O72      O      0.415820000000     0.387890000000     0.627580000000    -0.33312    
O73      O      0.759140000000     0.915610000000     0.423410000000    -0.0941546  
O74      O      0.677960000000     0.953500000000     0.427480000000    -0.302866   
O75      O      0.552110000000     0.254820000000     0.452790000000    -0.235222   
O76      O      0.482110000000     0.203300000000     0.456380000000    -0.330758   
O77      O      0.104300000000     0.012880000000     0.870620000000    -0.236716   
O78      O      0.105730000000     0.954640000000     0.800620000000    -0.332347   
O79      O      0.577750000000     0.865500000000     0.846840000000    -0.236209   
O80      O      0.563920000000     0.800370000000     0.906790000000    -0.332401   
O81      O      0.624590000000     0.917420000000     0.109960000000    -0.237327   
O82      O      0.558650000000     0.931820000000     0.171400000000    -0.333666   
O83      O      0.081730000000     0.726300000000     0.167580000000    -0.095374   
O84      O      0.047470000000     0.807040000000     0.168520000000    -0.306194   
O85      O      0.277470000000     0.748130000000     0.196430000000    -0.233772   
O86      O      0.206940000000     0.797980000000     0.184750000000    -0.333178   
O87      O      0.183410000000     0.380220000000     0.366280000000    -0.219215   
O88      O      0.206600000000     0.334610000000     0.289280000000    -0.330788   
O89      O      0.932440000000     0.102070000000     0.791490000000    -0.231007   
O90      O      0.003830000000     0.100620000000     0.847640000000    -0.328276   
O91      O      0.773260000000     0.293220000000     0.915070000000    -0.0968769  
O92      O      0.700140000000     0.243390000000     0.902080000000    -0.307366   
O93      O      0.821870000000     0.380470000000     0.731910000000    -0.233827   
O94      O      0.887970000000     0.435980000000     0.722310000000    -0.334332   
O95      O      0.045570000000     0.349020000000     0.070580000000    -0.234324   
O96      O      0.059410000000     0.377540000000     0.981350000000    -0.332431   


