data_structure

_audit_creation_method RASPA-1.0
_audit_creation_date 2023-5-22
_audit_author_name 'Poobodin Mano'

_cell_length_a    23.3047
_cell_length_b    25.7613
_cell_length_c    25.5776
_cell_angle_alpha 90
_cell_angle_beta  90
_cell_angle_gamma 90
_cell_volume      15355.8

_symmetry_cell_setting          triclinic
_symmetry_space_group_name_Hall 'P 1'
_symmetry_space_group_name_H-M  'P 1'
_symmetry_Int_Tables_number     1

_symmetry_equiv_pos_as_xyz 'x,y,z'

loop_
_atom_site_label
_atom_site_type_symbol
_atom_site_fract_x
_atom_site_fract_y
_atom_site_fract_z
_atom_site_charge
C1       C      0.992440000000     0.292520000000     0.804260000000     0.408789   
C2       C      0.983530000000     0.426740000000     0.921380000000     0.435485   
C3       C      0.875620000000     0.419070000000     0.780210000000     0.407099   
C4       C      0.860470000000     0.310360000000     0.925680000000     0.436989   
C5       C      0.100930000000     0.540010000000     0.067280000000     0.412414   
C6       C      0.232900000000     0.663800000000     0.067280000000     0.432865   
C7       C      0.088160000000     0.663040000000     0.182710000000     0.434867   
C8       C      0.227000000000     0.551260000000     0.198580000000     0.440256   
C9       C      0.338800000000     0.803290000000     0.938420000000     0.402697   
C10      C      0.342640000000     0.936540000000     0.825460000000     0.415599   
C11      C      0.478560000000     0.920260000000     0.943520000000     0.429038   
C12      C      0.467840000000     0.804130000000     0.816520000000     0.439894   
C13      C      0.725510000000     0.198360000000     0.060060000000     0.401966   
C14      C      0.602680000000     0.064700000000     0.051340000000     0.406521   
C15      C      0.720610000000     0.057080000000     0.173750000000     0.429051   
C16      C      0.609040000000     0.194860000000     0.179140000000     0.435373   
C17      C      0.366470000000     0.428340000000     0.317950000000     0.402877   
C18      C      0.486650000000     0.302600000000     0.323680000000     0.409541   
C19      C      0.490700000000     0.439450000000     0.444320000000     0.432525   
C20      C      0.372650000000     0.311810000000     0.453090000000     0.404475   
C21      C      0.737990000000     0.559140000000     0.683390000000     0.439809   
C22      C      0.615080000000     0.695010000000     0.691170000000     0.411905   
C23      C      0.748950000000     0.685660000000     0.570020000000     0.43018    
C24      C      0.600330000000     0.582990000000     0.563260000000     0.404383   
C25      C      0.976700000000     0.803020000000     0.303860000000     0.402615   
C26      C      0.974560000000     0.925090000000     0.422080000000     0.43704    
C27      C      0.843100000000     0.916700000000     0.288430000000     0.404045   
C28      C      0.836390000000     0.809270000000     0.421340000000     0.40818    
C29      C      0.112140000000     0.166590000000     0.670970000000     0.433288   
C30      C      0.235230000000     0.168630000000     0.539800000000     0.429549   
C31      C      0.233130000000     0.048430000000     0.674180000000     0.429981   
C32      C      0.116100000000     0.052930000000     0.531540000000     0.407421   
C33      C      0.033200000000     0.046040000000     0.471500000000    -0.0166913  
C34      C      0.109390000000     0.977450000000     0.472090000000    -0.102301   
C35      C      0.986730000000     0.004330000000     0.474970000000    -0.00508723 
C36      C      0.063370000000     0.935220000000     0.475610000000     0.32458    
C37      C      0.776520000000     0.802010000000     0.501060000000    -0.0170888  
C38      C      0.793290000000     0.724360000000     0.443570000000    -0.102992   
C39      C      0.794090000000     0.769980000000     0.548910000000    -0.00544298 
C40      C      0.812240000000     0.693020000000     0.491390000000     0.326277   
C41      C      0.366000000000     0.231650000000     0.506260000000    -0.0179597  
C42      C      0.283510000000     0.294190000000     0.502320000000    -0.103682   
C43      C      0.325370000000     0.186980000000     0.492290000000    -0.00472633 
C44      C      0.243360000000     0.249870000000     0.486890000000     0.326927   
C45      C      0.508990000000     0.536290000000     0.547430000000    -0.0150098  
C46      C      0.575640000000     0.555500000000     0.473370000000    -0.102879   
C47      C      0.506260000000     0.479280000000     0.530810000000    -0.00645671 
C48      C      0.574350000000     0.498570000000     0.456360000000     0.326037   
C49      C      0.838950000000     0.970470000000     0.208520000000    -0.0163619  
C50      C      0.748540000000     0.937420000000     0.249370000000    -0.101921   
C51      C      0.813650000000     0.024950000000     0.205330000000    -0.00535305 
C52      C      0.721550000000     0.991640000000     0.245490000000     0.323629   
C53      C      0.571480000000     0.247470000000     0.305520000000    -0.0170572  
C54      C      0.485150000000     0.244700000000     0.246790000000    -0.103863   
C55      C      0.610490000000     0.251040000000     0.257460000000    -0.00477978 
C56      C      0.523860000000     0.250220000000     0.198960000000     0.326644   
C57      C      0.249570000000     0.962960000000     0.786950000000    -0.01514    
C58      C      0.335290000000     0.021080000000     0.779900000000    -0.100381   
C59      C      0.238040000000     0.969360000000     0.728400000000    -0.00629969 
C60      C      0.324240000000     0.028170000000     0.721300000000     0.323994   
C61      C      0.592630000000     0.728310000000     0.779620000000    -0.0180917  
C62      C      0.550060000000     0.770400000000     0.700000000000    -0.102745   
C63      C      0.533980000000     0.729900000000     0.806490000000    -0.00281934 
C64      C      0.491360000000     0.772050000000     0.726810000000     0.326366   
C65      C      0.508570000000     0.027020000000     0.028470000000    -0.0169278  
C66      C      0.594840000000     0.010250000000     0.971670000000    -0.10206    
C67      C      0.492500000000     0.969720000000     0.025110000000    -0.00498206 
C68      C      0.576690000000     0.953100000000     0.966500000000     0.324313   
C69      C      0.029100000000     0.784930000000     0.221740000000    -0.0180017  
C70      C      0.039610000000     0.725920000000     0.299610000000    -0.103742   
C71      C      0.021480000000     0.737510000000     0.186410000000    -0.00433533 
C72      C      0.031310000000     0.678840000000     0.264070000000     0.326515   
C73      C      0.286070000000     0.786760000000     0.020670000000    -0.0180005  
C74      C      0.279470000000     0.723880000000     0.945740000000    -0.102872   
C75      C      0.294300000000     0.741430000000     0.058520000000    -0.00487252 
C76      C      0.286830000000     0.678480000000     0.983930000000     0.324108   
C77      C      0.358340000000     0.500370000000     0.254350000000    -0.0189622  
C78      C      0.277840000000     0.436270000000     0.265770000000    -0.104494   
C79      C      0.314570000000     0.544680000000     0.252640000000    -0.00420612 
C80      C      0.234500000000     0.480730000000     0.265180000000     0.327854   
C81      C      0.086700000000     0.268840000000     0.767170000000    -0.0167591  
C82      C      0.008410000000     0.202560000000     0.773750000000    -0.102035   
C83      C      0.098570000000     0.252440000000     0.710940000000    -0.00480076 
C84      C      0.020560000000     0.184630000000     0.717740000000     0.324835   
C85      C      0.729410000000     0.270870000000     0.996550000000    -0.0180421  
C86      C      0.816130000000     0.246760000000     0.048670000000    -0.103621   
C87      C      0.765780000000     0.273760000000     0.946840000000    -0.00387707 
C88      C      0.853370000000     0.248160000000     0.999520000000     0.326399   
C89      C      0.870930000000     0.500030000000     0.728300000000    -0.0169675  
C90      C      0.797170000000     0.430730000000     0.715790000000    -0.102218   
C91      C      0.823760000000     0.540420000000     0.736480000000    -0.00397215 
C92      C      0.748980000000     0.470790000000     0.722430000000     0.325003   
C93      C      0.094190000000     0.459460000000     0.015180000000    -0.0159043  
C94      C      0.006120000000     0.512540000000     0.033640000000    -0.101961   
C95      C      0.076290000000     0.454830000000     0.957950000000    -0.00377809 
C96      C      0.987150000000     0.506720000000     0.976580000000     0.326016   
F1       F      0.083150000000     0.891390000000     0.449870000000    -0.420717   
F2       F      0.800130000000     0.641000000000     0.483170000000    -0.412862   
F3       F      0.188390000000     0.260970000000     0.504250000000    -0.417418   
F4       F      0.580010000000     0.496570000000     0.402450000000    -0.416676   
F5       F      0.663360000000     0.985920000000     0.235820000000    -0.423055   
F6       F      0.497980000000     0.225660000000     0.156900000000    -0.418903   
F7       F      0.341740000000     0.077600000000     0.707050000000    -0.418486   
F8       F      0.461670000000     0.815130000000     0.708890000000    -0.41938    
F9       F      0.593070000000     0.934980000000     0.917730000000    -0.420315   
F10      F      0.060830000000     0.636940000000     0.284820000000    -0.410731   
F11      F      0.256950000000     0.635980000000     0.964900000000    -0.422548   
F12      F      0.183150000000     0.462580000000     0.244850000000    -0.410327   
F13      F      0.010610000000     0.131650000000     0.714880000000    -0.420322   
F14      F      0.907720000000     0.264970000000     0.013670000000    -0.419215   
F15      F      0.703350000000     0.456460000000     0.690810000000    -0.420713   
F16      F      0.927720000000     0.505540000000     0.974880000000    -0.419577   
H1       H      0.120200000000     0.983500000000     0.430170000000     0.092602   
H2       H      0.040140000000     0.055450000000     0.429540000000     0.053605   
H3       H      0.947910000000     0.018260000000     0.453960000000     0.0575114  
H4       H      0.148810000000     0.963910000000     0.492430000000     0.101609   
H5       H      0.057310000000     0.925240000000     0.517550000000     0.0041943  
H6       H      0.017840000000     0.081840000000     0.491330000000     0.0657629  
H7       H      0.975010000000     0.999210000000     0.516800000000     0.0525355  
H8       H      0.746690000000     0.717530000000     0.437180000000     0.0949194  
H9       H      0.729030000000     0.800030000000     0.497280000000     0.0538425  
H10      H      0.770440000000     0.784290000000     0.583790000000     0.0578674  
H11      H      0.816720000000     0.710190000000     0.408500000000     0.106315   
H12      H      0.859530000000     0.697270000000     0.495430000000     0.00664538 
H13      H      0.788470000000     0.843300000000     0.507450000000     0.0597505  
H14      H      0.840640000000     0.776410000000     0.555970000000     0.0495198  
H15      H      0.281990000000     0.298720000000     0.545540000000     0.0950923  
H16      H      0.369280000000     0.233740000000     0.549580000000     0.059197   
H17      H      0.340990000000     0.150740000000     0.511090000000     0.0636625  
H18      H      0.268020000000     0.330950000000     0.484460000000     0.106038   
H19      H      0.242310000000     0.247750000000     0.443470000000     0.00415064 
H20      H      0.409460000000     0.223150000000     0.490530000000     0.0611894  
H21      H      0.326920000000     0.181210000000     0.449220000000     0.0479411  
H22      H      0.541900000000     0.576780000000     0.451300000000     0.0939878  
H23      H      0.472650000000     0.557150000000     0.528650000000     0.052482   
H24      H      0.462880000000     0.463910000000     0.540170000000     0.0588269  
H25      H      0.617850000000     0.572660000000     0.462780000000     0.111085   
H26      H      0.611850000000     0.478540000000     0.474110000000     0.0108755  
H27      H      0.503400000000     0.539020000000     0.590510000000     0.0619278  
H28      H      0.537790000000     0.457180000000     0.554660000000     0.056543   
H29      H      0.736070000000     0.914900000000     0.214060000000     0.0932754  
H30      H      0.830260000000     0.950340000000     0.170880000000     0.0521067  
H31      H      0.831650000000     0.044680000000     0.170310000000     0.059808   
H32      H      0.730800000000     0.917130000000     0.284170000000     0.0980281  
H33      H      0.726800000000     0.011330000000     0.283880000000     0.00233133 
H34      H      0.886270000000     0.973300000000     0.213240000000     0.0594237  
H35      H      0.827920000000     0.047110000000     0.240300000000     0.0487235  
H36      H      0.477440000000     0.202660000000     0.253830000000     0.0948383  
H37      H      0.568100000000     0.205960000000     0.317030000000     0.0558178  
H38      H      0.651770000000     0.231230000000     0.266230000000     0.0590462  
H39      H      0.443060000000     0.263230000000     0.238390000000     0.102179   
H40      H      0.527730000000     0.292230000000     0.189600000000     0.0026031  
H41      H      0.591580000000     0.268930000000     0.338490000000     0.0631279  
H42      H      0.620080000000     0.292710000000     0.250230000000     0.0511262  
H43      H      0.313960000000     0.053450000000     0.801150000000     0.0922518  
H44      H      0.223810000000     0.992450000000     0.808330000000     0.0520122  
H45      H      0.190980000000     0.967150000000     0.721660000000     0.0611476  
H46      H      0.382160000000     0.023850000000     0.787500000000     0.103654   
H47      H      0.351190000000     0.999630000000     0.699830000000     0.011613   
H48      H      0.234770000000     0.923900000000     0.799610000000     0.0591873  
H49      H      0.258190000000     0.936180000000     0.707510000000     0.0559129  
H50      H      0.571850000000     0.808230000000     0.706690000000     0.098365   
H51      H      0.617140000000     0.763400000000     0.791580000000     0.0600319  
H52      H      0.540600000000     0.734210000000     0.849310000000     0.0605711  
H53      H      0.543730000000     0.765820000000     0.657160000000     0.100877   
H54      H      0.467140000000     0.736760000000     0.714970000000     0.00253542 
H55      H      0.616580000000     0.693660000000     0.793580000000     0.0602544  
H56      H      0.512290000000     0.692040000000     0.799730000000     0.0488698  
H57      H      0.578260000000     0.031810000000     0.937170000000     0.0963882  
H58      H      0.484540000000     0.048350000000     0.997660000000     0.0569555  
H59      H      0.445210000000     0.965870000000     0.029270000000     0.0591188  
H60      H      0.642480000000     0.012660000000     0.970900000000     0.0985606  
H61      H      0.600260000000     0.930460000000     0.996650000000     0.00269721 
H62      H      0.494620000000     0.042410000000     0.067030000000     0.0683245  
H63      H      0.512700000000     0.949190000000     0.058650000000     0.0516783  
H64      H      0.086430000000     0.733110000000     0.303940000000     0.0991532  
H65      H      0.075120000000     0.796330000000     0.221040000000     0.0534831  
H66      H      0.038560000000     0.746690000000     0.146900000000     0.0566505  
H67      H      0.021970000000     0.716960000000     0.338980000000     0.11073    
H68      H      0.984820000000     0.669070000000     0.263750000000     0.00817851 
H69      H      0.003700000000     0.817760000000     0.205600000000     0.0584444  
H70      H      0.974750000000     0.729690000000     0.182420000000     0.0493757  
H71      H      0.232790000000     0.730090000000     0.939240000000     0.0928323  
H72      H      0.239690000000     0.796890000000     0.019810000000     0.0512871  
H73      H      0.276260000000     0.752370000000     0.097210000000     0.0563634  
H74      H      0.299030000000     0.713250000000     0.907560000000     0.100063   
H75      H      0.333170000000     0.668270000000     0.985220000000     0.00177095 
H76      H      0.309920000000     0.821030000000     0.035680000000     0.0583975  
H77      H      0.341140000000     0.734990000000     0.063680000000     0.0472357  
H78      H      0.281400000000     0.420390000000     0.225470000000     0.0970611  
H79      H      0.368320000000     0.488710000000     0.213490000000     0.0552609  
H80      H      0.331290000000     0.575890000000     0.226780000000     0.0576992  
H81      H      0.261330000000     0.404800000000     0.291450000000     0.107191   
H82      H      0.226810000000     0.492940000000     0.306290000000     0.0114657  
H83      H      0.398650000000     0.514810000000     0.272510000000     0.0633963  
H84      H      0.310540000000     0.561030000000     0.292710000000     0.0517104  
H85      H      0.033070000000     0.177390000000     0.801020000000     0.096024   
H86      H      0.115940000000     0.246710000000     0.793330000000     0.0551362  
H87      H      0.145020000000     0.258090000000     0.702800000000     0.0637776  
H88      H      0.962010000000     0.197150000000     0.782310000000     0.100629   
H89      H      0.989790000000     0.204510000000     0.691220000000     0.00473815 
H90      H      0.096830000000     0.310780000000     0.771590000000     0.0613785  
H91      H      0.074280000000     0.278670000000     0.684430000000     0.0543059  
H92      H      0.818330000000     0.285470000000     0.067840000000     0.0975198  
H93      H      0.726910000000     0.310470000000     0.013720000000     0.0564839  
H94      H      0.748380000000     0.305090000000     0.921480000000     0.0609036  
H95      H      0.834130000000     0.217720000000     0.076330000000     0.103124   
H96      H      0.857030000000     0.207970000000     0.984020000000     0.0037623  
H97      H      0.685120000000     0.258650000000     0.986080000000     0.0618784  
H98      H      0.760870000000     0.236530000000     0.925290000000     0.0500826  
H99      H      0.806700000000     0.426960000000     0.673350000000     0.0962028  
H100     H      0.882700000000     0.499860000000     0.686160000000     0.0563649  
H101     H      0.839430000000     0.578520000000     0.721880000000     0.0594814  
H102     H      0.782090000000     0.392330000000     0.730100000000     0.101558   
H103     H      0.734340000000     0.469480000000     0.763780000000     0.00450342 
H104     H      0.909570000000     0.511490000000     0.751020000000     0.0620951  
H105     H      0.815980000000     0.544370000000     0.779190000000     0.053007   
H106     H      0.984870000000     0.481630000000     0.057020000000     0.1023     
H107     H      0.078060000000     0.424790000000     0.036510000000     0.0641932  
H108     H      0.092590000000     0.417350000000     0.942340000000     0.0629532  
H109     H      0.991010000000     0.550630000000     0.048740000000     0.103059   
H110     H      0.001950000000     0.541580000000     0.954770000000     0.0042638  
H111     H      0.141820000000     0.459350000000     0.017580000000     0.0678256  
H112     H      0.097400000000     0.486580000000     0.935630000000     0.0547738  
In1      In     0.926820000000     0.362140000000     0.856290000000     2.42142    
In2      In     0.163410000000     0.604650000000     0.127980000000     2.42181    
In3      In     0.406220000000     0.866810000000     0.880170000000     2.40211    
In4      In     0.664130000000     0.127810000000     0.114940000000     2.41955    
In5      In     0.430680000000     0.371540000000     0.384840000000     2.42344    
In6      In     0.675270000000     0.629690000000     0.628980000000     2.41243    
In7      In     0.907090000000     0.865440000000     0.359950000000     2.41346    
In8      In     0.174130000000     0.107320000000     0.604790000000     2.43411    
N1       N      0.008140000000     0.954430000000     0.454490000000    -0.194944   
N2       N      0.087150000000     0.026300000000     0.493720000000    -0.152684   
N3       N      0.784350000000     0.714370000000     0.538650000000    -0.192527   
N4       N      0.802690000000     0.780010000000     0.453540000000    -0.15269    
N5       N      0.266160000000     0.200360000000     0.507540000000    -0.192707   
N6       N      0.342460000000     0.280990000000     0.486620000000    -0.151948   
N7       N      0.521240000000     0.473090000000     0.475000000000    -0.192658   
N8       N      0.563170000000     0.559350000000     0.529560000000    -0.150843   
N9       N      0.750330000000     0.023280000000     0.204920000000    -0.192045   
N10      N      0.811410000000     0.941420000000     0.251070000000    -0.153586   
N11      N      0.581530000000     0.229520000000     0.210970000000    -0.194016   
N12      N      0.513780000000     0.266980000000     0.292890000000    -0.153143   
N13      N      0.263260000000     0.018100000000     0.708570000000    -0.19106    
N14      N      0.310720000000     0.971690000000     0.797990000000    -0.154184   
N15      N      0.498100000000     0.771610000000     0.784330000000    -0.191818   
N16      N      0.585690000000     0.728830000000     0.722430000000    -0.153162   
N17      N      0.514420000000     0.947360000000     0.976030000000    -0.192253   
N18      N      0.570530000000     0.033710000000     0.019320000000    -0.151304   
N19      N      0.049290000000     0.691920000000     0.210230000000    -0.192872   
N20      N      0.012870000000     0.772010000000     0.275860000000    -0.149916   
N21      N      0.268350000000     0.693790000000     0.037050000000    -0.193634   
N22      N      0.304220000000     0.771760000000     0.967650000000    -0.153343   
N23      N      0.257970000000     0.525340000000     0.235800000000    -0.192302   
N24      N      0.334590000000     0.455240000000     0.282280000000    -0.150956   
N25      N      0.079580000000     0.198570000000     0.701660000000    -0.191023   
N26      N      0.027060000000     0.256580000000     0.781020000000    -0.153482   
N27      N      0.827230000000     0.281400000000     0.958780000000    -0.191915   
N28      N      0.756200000000     0.235880000000     0.034740000000    -0.152003   
N29      N      0.769920000000     0.523900000000     0.711000000000    -0.193237   
N30      N      0.849250000000     0.448470000000     0.742830000000    -0.153152   
N31      N      0.013530000000     0.460220000000     0.952680000000    -0.190568   
N32      N      0.068700000000     0.506290000000     0.038380000000    -0.149572   
O1       O      0.914530000000     0.310480000000     0.927670000000    -0.45683    
O2       O      0.839650000000     0.337470000000     0.889200000000    -0.490544   
O3       O      0.007250000000     0.389070000000     0.898390000000    -0.489497   
O4       O      0.008110000000     0.338600000000     0.812380000000    -0.489909   
O5       O      0.919470000000     0.434260000000     0.804590000000    -0.494091   
O6       O      0.942910000000     0.281900000000     0.820800000000    -0.49533    
O7       O      0.930480000000     0.431440000000     0.912130000000    -0.448566   
O8       O      0.857750000000     0.374860000000     0.793640000000    -0.487502   
O9       O      0.245140000000     0.591720000000     0.176220000000    -0.500182   
O10      O      0.177480000000     0.537520000000     0.184570000000    -0.441517   
O11      O      0.212390000000     0.621040000000     0.052140000000    -0.455447   
O12      O      0.153770000000     0.533200000000     0.075760000000    -0.476353   
O13      O      0.113210000000     0.624020000000     0.201700000000    -0.449002   
O14      O      0.079950000000     0.579920000000     0.088500000000    -0.489274   
O15      O      0.218380000000     0.676580000000     0.113040000000    -0.498257   
O16      O      0.101530000000     0.673060000000     0.135940000000    -0.493862   
O17      O      0.433940000000     0.838450000000     0.799590000000    -0.453157   
O18      O      0.470960000000     0.801680000000     0.865800000000    -0.489976   
O19      O      0.322180000000     0.894690000000     0.842810000000    -0.496207   
O20      O      0.358840000000     0.845430000000     0.955530000000    -0.483825   
O21      O      0.425400000000     0.916360000000     0.951950000000    -0.491717   
O22      O      0.352780000000     0.792940000000     0.891940000000    -0.486593   
O23      O      0.395010000000     0.943310000000     0.835580000000    -0.488234   
O24      O      0.495550000000     0.896950000000     0.902980000000    -0.442926   
O25      O      0.587770000000     0.178450000000     0.137020000000    -0.448326   
O26      O      0.658200000000     0.177080000000     0.189270000000    -0.501529   
O27      O      0.654820000000     0.075090000000     0.042770000000    -0.492575   
O28      O      0.673170000000     0.189680000000     0.050920000000    -0.489129   
O29      O      0.667510000000     0.065460000000     0.178670000000    -0.453929   
O30      O      0.746970000000     0.170530000000     0.095540000000    -0.485454   
O31      O      0.582170000000     0.085820000000     0.091670000000    -0.478972   
O32      O      0.744700000000     0.083830000000     0.138730000000    -0.492581   
O33      O      0.352570000000     0.353610000000     0.434890000000    -0.481904   
O34      O      0.422430000000     0.300410000000     0.437340000000    -0.497073   
O35      O      0.436550000000     0.318320000000     0.314200000000    -0.502986   
O36      O      0.417240000000     0.440680000000     0.329820000000    -0.486077   
O37      O      0.445070000000     0.418030000000     0.459680000000    -0.506537   
O38      O      0.347960000000     0.388210000000     0.340580000000    -0.481578   
O39      O      0.509240000000     0.321980000000     0.364060000000    -0.482712   
O40      O      0.506060000000     0.426630000000     0.398810000000    -0.448057   
O41      O      0.591140000000     0.586550000000     0.611780000000    -0.48186    
O42      O      0.646880000000     0.602850000000     0.548240000000    -0.47343    
O43      O      0.648600000000     0.660920000000     0.709130000000    -0.497913   
O44      O      0.754420000000     0.605120000000     0.675660000000    -0.502289   
O45      O      0.740120000000     0.637870000000     0.563020000000    -0.43834    
O46      O      0.689610000000     0.548780000000     0.663990000000    -0.454584   
O47      O      0.611550000000     0.695890000000     0.641940000000    -0.492517   
O48      O      0.721420000000     0.705150000000     0.607750000000    -0.496821   
O49      O      0.849220000000     0.855850000000     0.431290000000    -0.496248   
O50      O      0.858100000000     0.791500000000     0.379810000000    -0.485985   
O51      O      0.988380000000     0.880280000000     0.407250000000    -0.461603   
O52      O      0.963100000000     0.793500000000     0.350650000000    -0.469357   
O53      O      0.821300000000     0.886030000000     0.321400000000    -0.494754   
O54      O      0.954730000000     0.843740000000     0.285170000000    -0.486707   
O55      O      0.926560000000     0.940280000000     0.405250000000    -0.503592   
O56      O      0.896770000000     0.922000000000     0.292080000000    -0.486264   
O57      O      0.097300000000     0.094410000000     0.551200000000    -0.484861   
O58      O      0.163950000000     0.038310000000     0.549280000000    -0.495544   
O59      O      0.185100000000     0.179340000000     0.554720000000    -0.451972   
O60      O      0.161500000000     0.179140000000     0.655160000000    -0.493088   
O61      O      0.182350000000     0.038160000000     0.660420000000    -0.496525   
O62      O      0.094610000000     0.123250000000     0.654420000000    -0.450201   
O63      O      0.254770000000     0.126420000000     0.557540000000    -0.485823   
O64      O      0.253930000000     0.088420000000     0.652950000000    -0.44992    


