data_structure

_audit_creation_method RASPA-1.0
_audit_creation_date 2023-5-22
_audit_author_name 'Poobodin Mano'

_cell_length_a    23.093
_cell_length_b    24.2491
_cell_length_c    26.3213
_cell_angle_alpha 90
_cell_angle_beta  90
_cell_angle_gamma 90
_cell_volume      14739.5

_symmetry_cell_setting          triclinic
_symmetry_space_group_name_Hall 'P 1'
_symmetry_space_group_name_H-M  'P 1'
_symmetry_Int_Tables_number     1

_symmetry_equiv_pos_as_xyz 'x,y,z'

loop_
_atom_site_label
_atom_site_type_symbol
_atom_site_fract_x
_atom_site_fract_y
_atom_site_fract_z
_atom_site_charge
Br1      Br     0.050180000000     0.847620000000     0.496360000000    -0.194597   
Br2      Br     0.836360000000     0.615870000000     0.493980000000    -0.207341   
Br3      Br     0.184830000000     0.172460000000     0.408400000000    -0.197505   
Br4      Br     0.391280000000     0.565790000000     0.469190000000    -0.201003   
Br5      Br     0.932870000000     0.073690000000     0.276940000000    -0.192956   
Br6      Br     0.511570000000     0.298220000000     0.107560000000    -0.194962   
Br7      Br     0.359420000000     0.881560000000     0.679970000000    -0.204308   
Br8      Br     0.504140000000     0.704410000000     0.848610000000    -0.196033   
Br9      Br     0.419880000000     0.037700000000     0.999200000000    -0.184368   
Br10     Br     0.171100000000     0.840270000000     0.210110000000    -0.19834    
Br11     Br     0.414410000000     0.865780000000     0.035370000000    -0.187284   
Br12     Br     0.362250000000     0.590220000000     0.130340000000    -0.191184   
Br13     Br     0.021150000000     0.193090000000     0.835400000000    -0.201705   
Br14     Br     0.878270000000     0.255000000000     0.097460000000    -0.189212   
Br15     Br     0.788430000000     0.365180000000     0.713880000000    -0.203381   
Br16     Br     0.910960000000     0.508430000000     0.996620000000    -0.207085   
C1       C      0.995090000000     0.463730000000     0.908110000000     0.424919   
C2       C      0.882170000000     0.329770000000     0.911940000000     0.409966   
C3       C      0.885530000000     0.440140000000     0.771360000000     0.421773   
C4       C      0.021410000000     0.320560000000     0.796520000000     0.426422   
C5       C      0.110410000000     0.597840000000     0.042950000000     0.400498   
C6       C      0.226420000000     0.601260000000     0.159890000000     0.424025   
C7       C      0.225120000000     0.748520000000     0.046430000000     0.409336   
C8       C      0.100650000000     0.742700000000     0.156980000000     0.412484   
C9       C      0.375190000000     0.856440000000     0.919090000000     0.427919   
C10      C      0.503450000000     0.980400000000     0.914960000000     0.422788   
C11      C      0.525130000000     0.832390000000     0.815470000000     0.42326    
C12      C      0.396940000000     0.959220000000     0.775450000000     0.424968   
C13      C      0.737210000000     0.098790000000     0.180640000000     0.401286   
C14      C      0.746520000000     0.235410000000     0.057210000000     0.416998   
C15      C      0.625880000000     0.092170000000     0.057990000000     0.409491   
C16      C      0.618070000000     0.241430000000     0.169690000000     0.422672   
C17      C      0.346700000000     0.474010000000     0.296190000000     0.409607   
C18      C      0.338800000000     0.330130000000     0.413790000000     0.408519   
C19      C      0.462740000000     0.327870000000     0.296600000000     0.404668   
C20      C      0.464870000000     0.471630000000     0.409160000000     0.420138   
C21      C      0.731980000000     0.567880000000     0.671980000000     0.409577   
C22      C      0.593780000000     0.564250000000     0.554110000000     0.407887   
C23      C      0.611970000000     0.698540000000     0.674360000000     0.408833   
C24      C      0.721720000000     0.678750000000     0.531770000000     0.417862   
C25      C      0.962120000000     0.860680000000     0.284400000000     0.411375   
C26      C      0.945840000000     0.924530000000     0.453230000000     0.421439   
C27      C      0.845290000000     0.981150000000     0.323830000000     0.415787   
C28      C      0.834880000000     0.802130000000     0.394270000000     0.402505   
C29      C      0.107300000000     0.187370000000     0.654060000000     0.415316   
C30      C      0.237640000000     0.170050000000     0.523020000000     0.427103   
C31      C      0.238180000000     0.062290000000     0.659140000000     0.401992   
C32      C      0.094360000000     0.053270000000     0.546480000000     0.404126   
C33      C      0.996450000000     0.038970000000     0.510880000000    -0.0141183  
C34      C      0.073770000000     0.964440000000     0.504230000000    -0.047331   
C35      C      0.951520000000     0.993740000000     0.521290000000    -0.00893825 
C36      C      0.027100000000     0.921930000000     0.516980000000     0.116953   
C37      C      0.740470000000     0.757280000000     0.410960000000    -0.0124173  
C38      C      0.831530000000     0.706720000000     0.427610000000    -0.0429789  
C39      C      0.719780000000     0.748710000000     0.465360000000    -0.00834689 
C40      C      0.812510000000     0.692470000000     0.482120000000     0.112482   
C41      C      0.327340000000     0.281250000000     0.495630000000    -0.0130429  
C42      C      0.253490000000     0.269480000000     0.425790000000    -0.0458747  
C43      C      0.328390000000     0.218640000000     0.502930000000    -0.0096562  
C44      C      0.255590000000     0.206930000000     0.434160000000     0.114197   
C45      C      0.582030000000     0.490720000000     0.489960000000    -0.0126567  
C46      C      0.494940000000     0.540290000000     0.524810000000    -0.0454273  
C47      C      0.561310000000     0.503190000000     0.435990000000    -0.0094447  
C48      C      0.474740000000     0.551900000000     0.470380000000     0.114738   
C49      C      0.733420000000     0.026220000000     0.246740000000    -0.0130595  
C50      C      0.829370000000     0.064650000000     0.216870000000    -0.0463701  
C51      C      0.755090000000     0.029960000000     0.301680000000    -0.0100435  
C52      C      0.848390000000     0.069500000000     0.272450000000     0.1141     
C53      C      0.550130000000     0.270080000000     0.284990000000    -0.0124817  
C54      C      0.480940000000     0.285220000000     0.212630000000    -0.0453568  
C55      C      0.600310000000     0.288790000000     0.251010000000    -0.010133   
C56      C      0.531520000000     0.304910000000     0.179560000000     0.114653   
C57      C      0.299160000000     0.060820000000     0.736290000000    -0.0126036  
C58      C      0.281970000000     0.973710000000     0.686140000000    -0.0463327  
C59      C      0.363690000000     0.046950000000     0.738570000000    -0.00954583 
C60      C      0.346880000000     0.960720000000     0.689480000000     0.11494    
C61      C      0.597710000000     0.793260000000     0.707120000000    -0.0140775  
C62      C      0.542670000000     0.712810000000     0.744850000000    -0.0468033  
C63      C      0.609780000000     0.814270000000     0.761020000000    -0.00869415 
C64      C      0.557470000000     0.734490000000     0.797910000000     0.115643   
C65      C      0.626330000000     0.022800000000     0.988820000000    -0.0123602  
C66      C      0.534910000000     0.043810000000     0.036420000000    -0.0449112  
C67      C      0.593410000000     0.028550000000     0.938610000000    -0.00955172 
C68      C      0.502290000000     0.050920000000     0.986120000000     0.115254   
C69      C      0.970480000000     0.822690000000     0.197390000000    -0.010945   
C70      C      0.056620000000     0.862160000000     0.240400000000    -0.0421753  
C71      C      0.003940000000     0.770630000000     0.183370000000    -0.0093732  
C72      C      0.093770000000     0.811820000000     0.226550000000     0.112012   
C73      C      0.233940000000     0.809970000000     0.971610000000    -0.0113431  
C74      C      0.305040000000     0.815940000000     0.042370000000    -0.04293    
C75      C      0.282910000000     0.809410000000     0.932600000000    -0.00889246 
C76      C      0.356120000000     0.816800000000     0.005050000000     0.114264   
C77      C      0.260500000000     0.531380000000     0.278270000000    -0.012029   
C78      C      0.351870000000     0.544120000000     0.228310000000    -0.0430606  
C79      C      0.225450000000     0.533320000000     0.229080000000    -0.00937498 
C80      C      0.317050000000     0.546260000000     0.178730000000     0.112801   
C81      C      0.078720000000     0.281800000000     0.679850000000    -0.0129068  
C82      C      0.041990000000     0.198890000000     0.727800000000    -0.0447226  
C83      C      0.095980000000     0.308540000000     0.730460000000    -0.00995178 
C84      C      0.061750000000     0.225730000000     0.777460000000     0.114944   
C85      C      0.788860000000     0.286500000000     0.935520000000    -0.0116434  
C86      C      0.876840000000     0.274830000000     0.990930000000    -0.042562   
C87      C      0.752320000000     0.297200000000     0.983030000000    -0.0111274  
C88      C      0.839790000000     0.286860000000     0.037970000000     0.111789   
C89      C      0.815800000000     0.560690000000     0.730170000000    -0.0115746  
C90      C      0.752680000000     0.478060000000     0.712770000000    -0.0443003  
C91      C      0.869380000000     0.524790000000     0.721620000000    -0.00989421 
C92      C      0.807100000000     0.443180000000     0.703790000000     0.114104   
C93      C      0.114720000000     0.523390000000     0.979080000000    -0.0128666  
C94      C      0.022540000000     0.542810000000     0.026040000000    -0.0440753  
C95      C      0.080800000000     0.518440000000     0.929640000000    -0.00856397 
C96      C      0.987550000000     0.536050000000     0.976750000000     0.113779   
H1       H      0.079240000000     0.966040000000     0.462280000000     0.0763398  
H2       H      0.994270000000     0.049950000000     0.469910000000     0.0571066  
H3       H      0.908370000000     0.007440000000     0.507430000000     0.054841   
H4       H      0.115620000000     0.951070000000     0.521130000000     0.0816766  
H5       H      0.024490000000     0.919960000000     0.559170000000     0.0337531  
H6       H      0.984570000000     0.076330000000     0.533020000000     0.0583563  
H7       H      0.948340000000     0.987760000000     0.563100000000     0.0460239  
H8       H      0.817940000000     0.672760000000     0.401780000000     0.06815    
H9       H      0.724330000000     0.722380000000     0.387450000000     0.0480915  
H10      H      0.672050000000     0.742540000000     0.464450000000     0.0548097  
H11      H      0.879590000000     0.709220000000     0.426070000000     0.0768673  
H12      H      0.837610000000     0.718710000000     0.508860000000     0.0383887  
H13      H      0.721540000000     0.796020000000     0.395640000000     0.0556804  
H14      H      0.728030000000     0.787220000000     0.487140000000     0.0476296  
H15      H      0.216850000000     0.286570000000     0.448220000000     0.0693816  
H16      H      0.296210000000     0.299100000000     0.523360000000     0.0497161  
H17      H      0.340030000000     0.209210000000     0.542980000000     0.0535339  
H18      H      0.245080000000     0.278260000000     0.384990000000     0.0779312  
H19      H      0.290710000000     0.190940000000     0.409240000000     0.0340013  
H20      H      0.370960000000     0.298160000000     0.504370000000     0.0546853  
H21      H      0.362960000000     0.201280000000     0.478220000000     0.0451771  
H22      H      0.473720000000     0.501760000000     0.538170000000     0.0684134  
H23      H      0.565610000000     0.449300000000     0.500980000000     0.0501146  
H24      H      0.577430000000     0.470490000000     0.410000000000     0.0568569  
H25      H      0.481100000000     0.574470000000     0.550220000000     0.0782837  
H26      H      0.494750000000     0.591800000000     0.459070000000     0.0347659  
H27      H      0.630130000000     0.489190000000     0.490400000000     0.058723   
H28      H      0.580850000000     0.542950000000     0.423710000000     0.0476507  
H29      H      0.845730000000     0.024920000000     0.201400000000     0.0667045  
H30      H      0.741070000000     0.983510000000     0.232910000000     0.0479402  
H31      H      0.733660000000     0.997540000000     0.324870000000     0.0564243  
H32      H      0.849170000000     0.098680000000     0.194480000000     0.0849093  
H33      H      0.832890000000     0.110340000000     0.286150000000     0.0373772  
H34      H      0.685940000000     0.033720000000     0.246120000000     0.0552644  
H35      H      0.741730000000     0.070640000000     0.317310000000     0.0471854  
H36      H      0.474610000000     0.240320000000     0.206050000000     0.0688974  
H37      H      0.547050000000     0.224380000000     0.282720000000     0.0472762  
H38      H      0.640700000000     0.267870000000     0.263460000000     0.0557842  
H39      H      0.440560000000     0.306900000000     0.201190000000     0.0788938  
H40      H      0.535790000000     0.350060000000     0.186200000000     0.0365793  
H41      H      0.559720000000     0.281250000000     0.325080000000     0.0551136  
H42      H      0.606490000000     0.333890000000     0.256510000000     0.049295   
H43      H      0.259420000000     0.951710000000     0.717490000000     0.0692342  
H44      H      0.278310000000     0.045270000000     0.771580000000     0.0517041  
H45      H      0.382550000000     0.065560000000     0.773440000000     0.0572359  
H46      H      0.264530000000     0.957900000000     0.649540000000     0.0792284  
H47      H      0.367510000000     0.980520000000     0.655910000000     0.0331404  
H48      H      0.293930000000     0.106380000000     0.735450000000     0.0563389  
H49      H      0.385290000000     0.066420000000     0.705320000000     0.0462073  
H50      H      0.499060000000     0.728350000000     0.734070000000     0.0733986  
H51      H      0.558980000000     0.815200000000     0.692250000000     0.0534951  
H52      H      0.614370000000     0.859900000000     0.760240000000     0.0555914  
H53      H      0.540790000000     0.667000000000     0.745800000000     0.078215   
H54      H      0.600410000000     0.716790000000     0.808050000000     0.033827   
H55      H      0.635010000000     0.803920000000     0.682300000000     0.0547308  
H56      H      0.651870000000     0.796790000000     0.773800000000     0.0461705  
H57      H      0.529460000000     0.000470000000     0.049420000000     0.0750004  
H58      H      0.626470000000     0.978510000000     0.999740000000     0.0510714  
H59      H      0.613770000000     0.001070000000     0.909920000000     0.0565126  
H60      H      0.515500000000     0.071240000000     0.065680000000     0.0821767  
H61      H      0.505840000000     0.095130000000     0.975260000000     0.0380129  
H62      H      0.672000000000     0.035930000000     0.983170000000     0.0544446  
H63      H      0.598750000000     0.071660000000     0.924970000000     0.0479245  
H64      H      0.061700000000     0.893980000000     0.210260000000     0.0731526  
H65      H      0.974490000000     0.852520000000     0.165470000000     0.0491727  
H66      H      0.989170000000     0.756890000000     0.145190000000     0.0570976  
H67      H      0.072940000000     0.880200000000     0.276520000000     0.0822361  
H68      H      0.098090000000     0.785390000000     0.260860000000     0.0418793  
H69      H      0.923850000000     0.812370000000     0.201880000000     0.053674   
H70      H      0.991920000000     0.737590000000     0.210710000000     0.0494334  
H71      H      0.292410000000     0.859200000000     0.051140000000     0.0762703  
H72      H      0.219750000000     0.853390000000     0.977110000000     0.0518757  
H73      H      0.267870000000     0.831760000000     0.898140000000     0.0583066  
H74      H      0.319310000000     0.796480000000     0.078530000000     0.0850636  
H75      H      0.375080000000     0.774690000000     0.003500000000     0.0458595  
H76      H      0.196560000000     0.786220000000     0.956440000000     0.0552623  
H77      H      0.290870000000     0.765910000000     0.921180000000     0.0537432  
H78      H      0.358740000000     0.587040000000     0.241980000000     0.0717068  
H79      H      0.261630000000     0.573600000000     0.294740000000     0.0563314  
H80      H      0.182040000000     0.550780000000     0.237720000000     0.0574249  
H81      H      0.395150000000     0.525830000000     0.220530000000     0.0783619  
H82      H      0.315480000000     0.503650000000     0.163160000000     0.0373414  
H83      H      0.238230000000     0.503900000000     0.305870000000     0.0599996  
H84      H      0.218810000000     0.490250000000     0.215780000000     0.0485866  
H85      H      0.995630000000     0.209280000000     0.721530000000     0.0678564  
H86      H      0.034870000000     0.296950000000     0.669380000000     0.0500151  
H87      H      0.093230000000     0.354120000000     0.726710000000     0.0558823  
H88      H      0.045600000000     0.153300000000     0.731010000000     0.076132   
H89      H      0.107880000000     0.213830000000     0.782900000000     0.0353174  
H90      H      0.109410000000     0.295260000000     0.649760000000     0.0551515  
H91      H      0.141940000000     0.297830000000     0.738380000000     0.0478688  
H92      H      0.879300000000     0.229390000000     0.985640000000     0.0727297  
H93      H      0.785150000000     0.242060000000     0.925630000000     0.0528842  
H94      H      0.707270000000     0.283180000000     0.975710000000     0.059925   
H95      H      0.921560000000     0.290340000000     0.997430000000     0.0820726  
H96      H      0.840840000000     0.332280000000     0.043940000000     0.0407692  
H97      H      0.770880000000     0.310770000000     0.903350000000     0.0617757  
H98      H      0.750790000000     0.342500000000     0.989480000000     0.0532881  
H99      H      0.739110000000     0.473000000000     0.753040000000     0.0681225  
H100     H      0.806440000000     0.561680000000     0.771600000000     0.0502366  
H101     H      0.905910000000     0.541550000000     0.744370000000     0.0569618  
H102     H      0.716990000000     0.462610000000     0.688230000000     0.0774792  
H103     H      0.817960000000     0.447050000000     0.662760000000     0.0366723  
H104     H      0.825370000000     0.603540000000     0.717730000000     0.0571916  
H105     H      0.881760000000     0.527960000000     0.680880000000     0.0518453  
H106     H      0.022650000000     0.502760000000     0.046670000000     0.0696096  
H107     H      0.119860000000     0.481440000000     0.995530000000     0.0518053  
H108     H      0.104000000000     0.489280000000     0.904180000000     0.0572111  
H109     H      0.000610000000     0.573670000000     0.050700000000     0.0767391  
H110     H      0.981030000000     0.577790000000     0.960230000000     0.0348465  
H111     H      0.158640000000     0.539760000000     0.970600000000     0.0583176  
H112     H      0.080980000000     0.559430000000     0.910680000000     0.0477798  
In1      In     0.946410000000     0.388510000000     0.845510000000     2.42779    
In2      In     0.165850000000     0.672660000000     0.101080000000     2.42596    
In3      In     0.449270000000     0.906540000000     0.854160000000     2.42635    
In4      In     0.681510000000     0.167280000000     0.116020000000     2.4161     
In5      In     0.401600000000     0.399020000000     0.354550000000     2.42696    
In6      In     0.665100000000     0.628760000000     0.609180000000     2.42702    
In7      In     0.896860000000     0.891250000000     0.364730000000     2.41766    
In8      In     0.170420000000     0.119840000000     0.594290000000     2.41275    
N1       N      0.971180000000     0.942320000000     0.497270000000    -0.174898   
N2       N      0.055760000000     0.019500000000     0.522460000000    -0.156683   
N3       N      0.749680000000     0.702550000000     0.491350000000    -0.172087   
N4       N      0.803740000000     0.757550000000     0.410250000000    -0.160173   
N5       N      0.271980000000     0.195530000000     0.487640000000    -0.176121   
N6       N      0.307830000000     0.294850000000     0.443760000000    -0.160872   
N7       N      0.497670000000     0.508410000000     0.436170000000    -0.173982   
N8       N      0.558210000000     0.532210000000     0.525110000000    -0.159743   
N9       N      0.818780000000     0.026040000000     0.302340000000    -0.172992   
N10      N      0.765540000000     0.064900000000     0.213850000000    -0.158903   
N11      N      0.585610000000     0.277980000000     0.197350000000    -0.174555   
N12      N      0.495500000000     0.294270000000     0.266490000000    -0.160337   
N13      N      0.371270000000     0.986640000000     0.735870000000    -0.175525   
N14      N      0.272310000000     0.033480000000     0.692180000000    -0.159244   
N15      N      0.563380000000     0.795230000000     0.795210000000    -0.173542   
N16      N      0.585510000000     0.733490000000     0.707790000000    -0.159897   
N17      N      0.531020000000     0.017470000000     0.946000000000    -0.171935   
N18      N      0.596980000000     0.054640000000     0.028770000000    -0.159914   
N19      N      0.067550000000     0.778150000000     0.185260000000    -0.170519   
N20      N      0.995270000000     0.847220000000     0.243280000000    -0.159156   
N21      N      0.337610000000     0.832460000000     0.952830000000    -0.169579   
N22      N      0.254730000000     0.788090000000     0.020170000000    -0.158186   
N23      N      0.256580000000     0.564280000000     0.189130000000    -0.173049   
N24      N      0.320030000000     0.513520000000     0.267590000000    -0.158627   
N25      N      0.059090000000     0.286480000000     0.771460000000    -0.175038   
N26      N      0.076540000000     0.221310000000     0.685440000000    -0.161059   
N27      N      0.778850000000     0.270540000000     0.027790000000    -0.171925   
N28      N      0.850140000000     0.299400000000     0.945430000000    -0.156681   
N29      N      0.855680000000     0.466780000000     0.733620000000    -0.173981   
N30      N      0.765680000000     0.536740000000     0.703510000000    -0.160106   
N31      N      0.020140000000     0.502180000000     0.939310000000    -0.172937   
N32      N      0.082900000000     0.558070000000     0.015280000000    -0.159093   
O1       O      0.983560000000     0.303600000000     0.827010000000    -0.482135   
O2       O      0.021120000000     0.372070000000     0.790270000000    -0.500967   
O3       O      0.935710000000     0.338170000000     0.917900000000    -0.485915   
O4       O      0.941120000000     0.457690000000     0.903820000000    -0.480311   
O5       O      0.924250000000     0.463690000000     0.797200000000    -0.504386   
O6       O      0.024520000000     0.432170000000     0.880000000000    -0.498808   
O7       O      0.860780000000     0.351220000000     0.872400000000    -0.479093   
O8       O      0.877270000000     0.390540000000     0.783380000000    -0.473707   
O9       O      0.080800000000     0.716570000000     0.119320000000    -0.488938   
O10      O      0.152890000000     0.732250000000     0.167060000000    -0.47652    
O11      O      0.246320000000     0.622590000000     0.120020000000    -0.47546    
O12      O      0.085710000000     0.623890000000     0.078340000000    -0.489454   
O13      O      0.241520000000     0.731290000000     0.089230000000    -0.483747   
O14      O      0.162910000000     0.610380000000     0.036090000000    -0.493577   
O15      O      0.175310000000     0.615960000000     0.170150000000    -0.501494   
O16      O      0.178730000000     0.727090000000     0.030470000000    -0.496025   
O17      O      0.417890000000     0.984020000000     0.813270000000    -0.50511    
O18      O      0.401640000000     0.907620000000     0.777790000000    -0.480289   
O19      O      0.530330000000     0.950460000000     0.883550000000    -0.489607   
O20      O      0.428490000000     0.862100000000     0.927940000000    -0.472174   
O21      O      0.480710000000     0.818650000000     0.840110000000    -0.477619   
O22      O      0.359410000000     0.874150000000     0.876100000000    -0.492413   
O23      O      0.449460000000     0.973320000000     0.914780000000    -0.469297   
O24      O      0.531050000000     0.883790000000     0.810100000000    -0.494896   
O25      O      0.663690000000     0.219680000000     0.186740000000    -0.502953   
O26      O      0.604790000000     0.225650000000     0.125770000000    -0.474248   
O27      O      0.764620000000     0.214050000000     0.097730000000    -0.467094   
O28      O      0.763530000000     0.130080000000     0.150060000000    -0.47591    
O29      O      0.601330000000     0.119120000000     0.092820000000    -0.491668   
O30      O      0.682680000000     0.101630000000     0.178360000000    -0.496159   
O31      O      0.695260000000     0.222050000000     0.046080000000    -0.494004   
O32      O      0.679020000000     0.102830000000     0.052280000000    -0.499608   
O33      O      0.410610000000     0.468240000000     0.412760000000    -0.478316   
O34      O      0.487070000000     0.437460000000     0.378700000000    -0.497125   
O35      O      0.324160000000     0.342020000000     0.368930000000    -0.495623   
O36      O      0.398880000000     0.460460000000     0.289410000000    -0.497869   
O37      O      0.476820000000     0.339740000000     0.341580000000    -0.494979   
O38      O      0.321580000000     0.448970000000     0.332060000000    -0.487089   
O39      O      0.384640000000     0.353200000000     0.428730000000    -0.504452   
O40      O      0.417010000000     0.350900000000     0.281150000000    -0.494349   
O41      O      0.746730000000     0.648100000000     0.563660000000    -0.477233   
O42      O      0.668480000000     0.686140000000     0.540430000000    -0.500797   
O43      O      0.648040000000     0.558350000000     0.554270000000    -0.494765   
O44      O      0.688380000000     0.548560000000     0.649330000000    -0.49559    
O45      O      0.649010000000     0.714590000000     0.642370000000    -0.500891   
O46      O      0.742020000000     0.618120000000     0.663050000000    -0.49491    
O47      O      0.575180000000     0.602610000000     0.582150000000    -0.490851   
O48      O      0.601490000000     0.647520000000     0.673190000000    -0.49717    
O49      O      0.889440000000     0.802830000000     0.393970000000    -0.494874   
O50      O      0.811390000000     0.846060000000     0.378990000000    -0.488549   
O51      O      0.968340000000     0.889110000000     0.424500000000    -0.471504   
O52      O      0.982470000000     0.885750000000     0.322400000000    -0.482817   
O53      O      0.817230000000     0.943220000000     0.345680000000    -0.487099   
O54      O      0.908610000000     0.850180000000     0.287000000000    -0.502037   
O55      O      0.898640000000     0.943850000000     0.437050000000    -0.505286   
O56      O      0.899220000000     0.973510000000     0.322990000000    -0.479472   
O57      O      0.081040000000     0.100900000000     0.561920000000    -0.490575   
O58      O      0.146180000000     0.039340000000     0.554920000000    -0.477929   
O59      O      0.254880000000     0.159740000000     0.567390000000    -0.508123   
O60      O      0.138340000000     0.205210000000     0.618120000000    -0.501118   
O61      O      0.214160000000     0.040300000000     0.621130000000    -0.479139   
O62      O      0.107650000000     0.135650000000     0.659290000000    -0.499208   
O63      O      0.186240000000     0.155620000000     0.514840000000    -0.481868   
O64      O      0.228140000000     0.113110000000     0.664270000000    -0.49564    


