data_structure

_audit_creation_method RASPA-1.0
_audit_creation_date 2023-5-22
_audit_author_name 'Poobodin Mano'

_cell_length_a    20.4391
_cell_length_b    25.2403
_cell_length_c    25.5013
_cell_angle_alpha 90
_cell_angle_beta  90
_cell_angle_gamma 90
_cell_volume      13155.8

_symmetry_cell_setting          triclinic
_symmetry_space_group_name_Hall 'P 1'
_symmetry_space_group_name_H-M  'P 1'
_symmetry_Int_Tables_number     1

_symmetry_equiv_pos_as_xyz 'x,y,z'

loop_
_atom_site_label
_atom_site_type_symbol
_atom_site_fract_x
_atom_site_fract_y
_atom_site_fract_z
_atom_site_charge
C1       C      0.065550000000     0.416610000000     0.965990000000     0.405114   
C2       C      0.945430000000     0.492250000000     0.856380000000     0.409641   
C3       C      0.056770000000     0.371820000000     0.784150000000     0.408217   
C4       C      0.931700000000     0.307910000000     0.900390000000     0.406914   
C5       C      0.199730000000     0.519280000000     0.105780000000     0.407879   
C6       C      0.309200000000     0.652160000000     0.048530000000     0.405003   
C7       C      0.189410000000     0.692730000000     0.179570000000     0.404467   
C8       C      0.328250000000     0.577040000000     0.218540000000     0.406168   
C9       C      0.420870000000     0.770200000000     0.899540000000     0.403323   
C10      C      0.537790000000     0.895520000000     0.952690000000     0.407205   
C11      C      0.542530000000     0.831770000000     0.775340000000     0.408718   
C12      C      0.410580000000     0.944220000000     0.830350000000     0.404745   
C13      C      0.671080000000     0.042790000000     0.058260000000     0.405653   
C14      C      0.793530000000     0.095330000000     0.180180000000     0.40691    
C15      C      0.796470000000     0.163300000000     0.003960000000     0.406227   
C16      C      0.680100000000     0.220760000000     0.128810000000     0.409131   
C17      C      0.462130000000     0.453830000000     0.346240000000     0.407678   
C18      C      0.570730000000     0.319640000000     0.288760000000     0.403265   
C19      C      0.582560000000     0.400260000000     0.459500000000     0.403448   
C20      C      0.449890000000     0.277050000000     0.412890000000     0.405844   
C21      C      0.820280000000     0.588480000000     0.710450000000     0.40447    
C22      C      0.705710000000     0.522700000000     0.594780000000     0.410718   
C23      C      0.686620000000     0.702240000000     0.657460000000     0.405767   
C24      C      0.811640000000     0.655210000000     0.533910000000     0.408448   
C25      C      0.040810000000     0.939290000000     0.444700000000     0.407502   
C26      C      0.052710000000     0.840930000000     0.284260000000     0.410895   
C27      C      0.926940000000     0.804230000000     0.416310000000     0.404182   
C28      C      0.918820000000     0.962030000000     0.312880000000     0.407272   
C29      C      0.284510000000     0.094870000000     0.724160000000     0.406942   
C30      C      0.174750000000     0.225080000000     0.675110000000     0.403484   
C31      C      0.305850000000     0.171420000000     0.554200000000     0.407644   
C32      C      0.166710000000     0.055680000000     0.592790000000     0.404959   
C33      C      0.166190000000     0.970360000000     0.544870000000    -0.00994429 
C34      C      0.061500000000     0.011320000000     0.573040000000    -0.0160633  
C35      C      0.141910000000     0.966330000000     0.488440000000    -0.0120105  
C36      C      0.033160000000     0.006480000000     0.517300000000     0.0102559  
C37      C      0.962510000000     0.995060000000     0.522300000000     0.0690319  
C38      C      0.935080000000     0.733740000000     0.482960000000    -0.011555   
C39      C      0.825280000000     0.758890000000     0.443120000000    -0.0177083  
C40      C      0.912260000000     0.675990000000     0.484570000000    -0.0109337  
C41      C      0.805880000000     0.700150000000     0.444940000000     0.0118719  
C42      C      0.734050000000     0.694510000000     0.445580000000     0.0680993  
C43      C      0.345210000000     0.228890000000     0.423000000000    -0.00981118 
C44      C      0.447180000000     0.190470000000     0.458660000000    -0.0153269  
C45      C      0.311720000000     0.226970000000     0.476300000000    -0.0106358  
C46      C      0.415790000000     0.182770000000     0.513130000000     0.0102529  
C47      C      0.436600000000     0.130420000000     0.533080000000     0.0702796  
C48      C      0.686860000000     0.432130000000     0.495630000000    -0.0107776  
C49      C      0.577270000000     0.454020000000     0.539530000000    -0.0161898  
C50      C      0.719440000000     0.437020000000     0.549550000000    -0.0113699  
C51      C      0.613610000000     0.455780000000     0.591930000000     0.012296   
C52      C      0.577140000000     0.487300000000     0.630920000000     0.0702811  
C53      C      0.893200000000     0.084690000000     0.234250000000    -0.00917545 
C54      C      0.785500000000     0.056730000000     0.269220000000    -0.0148407  
C55      C      0.922810000000     0.030510000000     0.245620000000    -0.0115373  
C56      C      0.812510000000     0.001870000000     0.284520000000     0.00981139 
C57      C      0.782830000000     0.987000000000     0.335300000000     0.0723717  
C58      C      0.669900000000     0.292970000000     0.240490000000    -0.0103506  
C59      C      0.556120000000     0.269980000000     0.206180000000    -0.0168849  
C60      C      0.692230000000     0.300420000000     0.183630000000    -0.0119381  
C61      C      0.582220000000     0.278310000000     0.150350000000     0.0117772  
C62      C      0.542710000000     0.248800000000     0.111760000000     0.0692218  
C63      C      0.379090000000     0.081950000000     0.783270000000    -0.0093648  
C64      C      0.272320000000     0.041780000000     0.805250000000    -0.015233   
C65      C      0.413240000000     0.028370000000     0.783880000000    -0.0109612  
C66      C      0.302970000000     0.986220000000     0.810230000000     0.0103931  
C67      C      0.273250000000     0.960120000000     0.856330000000     0.0700716  
C68      C      0.542120000000     0.788950000000     0.687950000000    -0.00970762 
C69      C      0.641310000000     0.834980000000     0.719100000000    -0.0154413  
C70      C      0.579140000000     0.737350000000     0.678860000000    -0.0106293  
C71      C      0.684570000000     0.786210000000     0.708050000000     0.0113821  
C72      C      0.745020000000     0.804770000000     0.682060000000     0.0669221  
C73      C      0.533190000000     0.948000000000     0.034640000000    -0.00957695 
C74      C      0.635720000000     0.902900000000     0.009520000000    -0.0150432  
C75      C      0.566580000000     0.001970000000     0.036500000000    -0.0111444  
C76      C      0.675230000000     0.954760000000     0.014140000000     0.0107678  
C77      C      0.737560000000     0.942160000000     0.040790000000     0.0669899  
C78      C      0.083180000000     0.729720000000     0.206810000000    -0.0105611  
C79      C      0.190150000000     0.771420000000     0.236800000000    -0.0165333  
C80      C      0.052830000000     0.785100000000     0.204830000000    -0.0117648  
C81      C      0.157370000000     0.825920000000     0.232720000000     0.0111296  
C82      C      0.191180000000     0.864470000000     0.266740000000     0.0698571  
C83      C      0.320340000000     0.718300000000     0.917190000000    -0.0106064  
C84      C      0.428710000000     0.680380000000     0.937970000000    -0.0155402  
C85      C      0.296580000000     0.710950000000     0.973460000000    -0.0108905  
C86      C      0.408990000000     0.669780000000     0.995250000000     0.0101701  
C87      C      0.436170000000     0.617670000000     0.010310000000     0.0721816  
C88      C      0.368650000000     0.515870000000     0.348460000000    -0.00961781 
C89      C      0.472540000000     0.543440000000     0.307550000000    -0.0150644  
C90      C      0.329910000000     0.525110000000     0.298480000000    -0.00909887 
C91      C      0.437750000000     0.559570000000     0.256340000000     0.0106143  
C92      C      0.461860000000     0.612480000000     0.240780000000     0.0712632  
C93      C      0.072690000000     0.271910000000     0.696850000000    -0.0109909  
C94      C      0.183960000000     0.304810000000     0.730020000000    -0.0165655  
C95      C      0.048930000000     0.329530000000     0.697350000000    -0.0115324  
C96      C      0.156680000000     0.361180000000     0.726930000000     0.0124461  
C97      C      0.193460000000     0.397640000000     0.761220000000     0.0712564  
C98      C      0.897360000000     0.170810000000     0.950720000000    -0.00971029 
C99      C      0.793680000000     0.207590000000     0.917250000000    -0.015204   
C100     C      0.931770000000     0.224260000000     0.947520000000    -0.0103466  
C101     C      0.824340000000     0.262770000000     0.909010000000     0.0107146  
C102     C      0.803080000000     0.282660000000     0.857230000000     0.068435   
C103     C      0.816650000000     0.540450000000     0.794050000000    -0.0104856  
C104     C      0.924850000000     0.576570000000     0.756710000000    -0.0160483  
C105     C      0.846060000000     0.546320000000     0.848930000000    -0.010604   
C106     C      0.948580000000     0.582080000000     0.813460000000     0.0123097  
C107     C      0.020650000000     0.582760000000     0.816450000000     0.0679578  
C108     C      0.206290000000     0.432930000000     0.060030000000    -0.00963386 
C109     C      0.105120000000     0.458100000000     0.106110000000    -0.0146295  
C110     C      0.171600000000     0.427940000000     0.007360000000    -0.00991477 
C111     C      0.063390000000     0.451840000000     0.056300000000     0.0115459  
C112     C      0.004560000000     0.420620000000     0.069750000000     0.065028   
H1       H      0.161160000000     0.000840000000     0.466140000000     0.0470276  
H2       H      0.220320000000     0.974750000000     0.544900000000     0.0524793  
H3       H      0.038120000000     0.045750000000     0.497940000000     0.0439517  
H4       H      0.039430000000     0.046150000000     0.593130000000     0.0573355  
H5       H      0.153900000000     0.932780000000     0.565430000000     0.0448104  
H6       H      0.047930000000     0.975380000000     0.595980000000     0.0484853  
H7       H      0.163490000000     0.930040000000     0.470750000000     0.056564   
H8       H      0.927300000000     0.656620000000     0.447280000000     0.0422011  
H9       H      0.988440000000     0.734490000000     0.474480000000     0.0512164  
H10      H      0.823170000000     0.682000000000     0.407660000000     0.0407033  
H11      H      0.803720000000     0.777460000000     0.407500000000     0.0597964  
H12      H      0.927700000000     0.751380000000     0.522470000000     0.0490339  
H13      H      0.804460000000     0.779400000000     0.477970000000     0.0542903  
H14      H      0.937580000000     0.655070000000     0.517110000000     0.0536629  
H15      H      0.313510000000     0.267230000000     0.493980000000     0.0465005  
H16      H      0.324170000000     0.261800000000     0.399440000000     0.0522351  
H17      H      0.436520000000     0.213270000000     0.539840000000     0.0454479  
H18      H      0.500790000000     0.196630000000     0.463210000000     0.0541195  
H19      H      0.334870000000     0.191090000000     0.402140000000     0.0429601  
H20      H      0.440260000000     0.153830000000     0.434900000000     0.0464852  
H21      H      0.259260000000     0.217110000000     0.469910000000     0.049697   
H22      H      0.719860000000     0.397150000000     0.568150000000     0.043399   
H23      H      0.710330000000     0.398990000000     0.473890000000     0.0516149  
H24      H      0.615050000000     0.414470000000     0.607140000000     0.0414776  
H25      H      0.528230000000     0.435860000000     0.545740000000     0.0551309  
H26      H      0.696530000000     0.469100000000     0.473200000000     0.0461855  
H27      H      0.569470000000     0.495190000000     0.525170000000     0.0517913  
H28      H      0.771140000000     0.449690000000     0.544460000000     0.0509853  
H29      H      0.923380000000     0.007260000000     0.208570000000     0.0480764  
H30      H      0.918860000000     0.102860000000     0.200280000000     0.0530332  
H31      H      0.795420000000     0.972820000000     0.254760000000     0.0470658  
H32      H      0.732440000000     0.053290000000     0.260050000000     0.0545357  
H33      H      0.901400000000     0.110490000000     0.269010000000     0.0432804  
H34      H      0.790390000000     0.084200000000     0.303210000000     0.0465179  
H35      H      0.974630000000     0.036540000000     0.257580000000     0.0525273  
H36      H      0.684020000000     0.342520000000     0.172490000000     0.0450665  
H37      H      0.695550000000     0.322510000000     0.265480000000     0.052361   
H38      H      0.575860000000     0.321090000000     0.141090000000     0.0419615  
H39      H      0.504510000000     0.283890000000     0.208190000000     0.0548537  
H40      H      0.685110000000     0.252870000000     0.253800000000     0.0450033  
H41      H      0.556300000000     0.226850000000     0.215260000000     0.0493681  
H42      H      0.745610000000     0.292520000000     0.180740000000     0.0531378  
H43      H      0.419760000000     0.014870000000     0.742690000000     0.0485306  
H44      H      0.405160000000     0.109090000000     0.756020000000     0.0545422  
H45      H      0.288720000000     0.962970000000     0.775000000000     0.0453707  
H46      H      0.220310000000     0.038040000000     0.792870000000     0.0537025  
H47      H      0.381920000000     0.099180000000     0.823370000000     0.0438763  
H48      H      0.272760000000     0.061630000000     0.844290000000     0.0461068  
H49      H      0.462980000000     0.034040000000     0.800720000000     0.0524292  
H50      H      0.566990000000     0.709510000000     0.711250000000     0.0496279  
H51      H      0.490000000000     0.779980000000     0.696730000000     0.0515799  
H52      H      0.699030000000     0.768830000000     0.746420000000     0.0459614  
H53      H      0.662840000000     0.858240000000     0.751910000000     0.0561462  
H54      H      0.543740000000     0.812510000000     0.651090000000     0.0445292  
H55      H      0.640650000000     0.861210000000     0.683940000000     0.0480636  
H56      H      0.560660000000     0.719120000000     0.641980000000     0.0553602  
H57      H      0.554250000000     0.023890000000     0.999970000000     0.0482604  
H58      H      0.480570000000     0.953270000000     0.024870000000     0.0520918  
H59      H      0.687410000000     0.968260000000     0.973810000000     0.0452078  
H60      H      0.659040000000     0.876590000000     0.979900000000     0.0557692  
H61      H      0.536310000000     0.929850000000     0.074320000000     0.0440606  
H62      H      0.636840000000     0.881560000000     0.047780000000     0.0470529  
H63      H      0.545360000000     0.024740000000     0.069770000000     0.0545869  
H64      H      0.059650000000     0.801100000000     0.164550000000     0.0443763  
H65      H      0.062160000000     0.705570000000     0.174460000000     0.0531331  
H66      H      0.164300000000     0.839770000000     0.191660000000     0.0414988  
H67      H      0.242470000000     0.775010000000     0.225170000000     0.0557228  
H68      H      0.068820000000     0.710720000000     0.244430000000     0.0448247  
H69      H      0.188670000000     0.757900000000     0.278330000000     0.0497305  
H70      H      0.999330000000     0.782000000000     0.212010000000     0.0519499  
H71      H      0.297990000000     0.750080000000     0.993470000000     0.04697    
H72      H      0.294340000000     0.752370000000     0.899040000000     0.0562237  
H73      H      0.432920000000     0.700230000000     0.020240000000     0.047307   
H74      H      0.482450000000     0.687070000000     0.935670000000     0.0551235  
H75      H      0.307520000000     0.682060000000     0.894570000000     0.0464442  
H76      H      0.417300000000     0.644810000000     0.913730000000     0.0483938  
H77      H      0.244440000000     0.698360000000     0.972170000000     0.0527024  
H78      H      0.318940000000     0.486020000000     0.280330000000     0.0475088  
H79      H      0.344190000000     0.484820000000     0.372380000000     0.0521864  
H80      H      0.453060000000     0.531300000000     0.225220000000     0.0477704  
H81      H      0.523590000000     0.531090000000     0.298570000000     0.0545481  
H82      H      0.368760000000     0.553280000000     0.371560000000     0.0429778  
H83      H      0.475550000000     0.578210000000     0.334380000000     0.0471316  
H84      H      0.282130000000     0.543270000000     0.309240000000     0.0493582  
H85      H      0.058460000000     0.347050000000     0.658050000000     0.0425046  
H86      H      0.051260000000     0.251590000000     0.662160000000     0.0523405  
H87      H      0.164580000000     0.375200000000     0.686040000000     0.0405492  
H88      H      0.236290000000     0.305230000000     0.717890000000     0.0550106  
H89      H      0.053490000000     0.251710000000     0.732410000000     0.0454433  
H90      H      0.181890000000     0.290820000000     0.771380000000     0.0509844  
H91      H      0.995190000000     0.330460000000     0.704040000000     0.052194   
H92      H      0.936140000000     0.240620000000     0.987880000000     0.0495215  
H93      H      0.920200000000     0.146450000000     0.982100000000     0.0533176  
H94      H      0.803650000000     0.289850000000     0.939150000000     0.0481843  
H95      H      0.740400000000     0.211920000000     0.925140000000     0.0549822  
H96      H      0.904530000000     0.149860000000     0.912770000000     0.0427842  
H97      H      0.798850000000     0.183770000000     0.880670000000     0.0459787  
H98      H      0.982430000000     0.217550000000     0.932970000000     0.0501023  
H99      H      0.834120000000     0.586570000000     0.863930000000     0.0435104  
H100     H      0.764140000000     0.551880000000     0.795840000000     0.0533267  
H101     H      0.931620000000     0.621400000000     0.827800000000     0.0410648  
H102     H      0.942440000000     0.611150000000     0.733540000000     0.0567286  
H103     H      0.818710000000     0.497970000000     0.782610000000     0.0494868  
H104     H      0.946590000000     0.540290000000     0.739030000000     0.0510242  
H105     H      0.823350000000     0.517030000000     0.875940000000     0.0554565  
H106     H      0.186900000000     0.461730000000     0.982160000000     0.0516256  
H107     H      0.258560000000     0.443240000000     0.053560000000     0.0528177  
H108     H      0.046420000000     0.491930000000     0.044330000000     0.0480561  
H109     H      0.082210000000     0.487930000000     0.132480000000     0.055214   
H110     H      0.204470000000     0.393750000000     0.079980000000     0.0422666  
H111     H      0.106550000000     0.419830000000     0.127910000000     0.0449102  
H112     H      0.189070000000     0.391260000000     0.987600000000     0.0534257  
In1      In     0.999580000000     0.396700000000     0.876510000000     2.43098    
In2      In     0.255840000000     0.611050000000     0.136720000000     2.42392    
In3      In     0.479170000000     0.859500000000     0.864470000000     2.41316    
In4      In     0.734900000000     0.130520000000     0.091950000000     2.42111    
In5      In     0.516720000000     0.361470000000     0.376250000000     2.4225     
In6      In     0.755860000000     0.617820000000     0.622910000000     2.42655    
In7      In     0.985040000000     0.885260000000     0.364470000000     2.41945    
In8      In     0.232910000000     0.137260000000     0.636140000000     2.4162     
N1       N      0.069540000000     0.966810000000     0.485110000000    -0.164686   
N2       N      0.133040000000     0.014470000000     0.571010000000    -0.164598   
N3       N      0.897670000000     0.984720000000     0.527180000000    -0.0922315  
N4       N      0.840530000000     0.674380000000     0.489140000000    -0.16585    
N5       N      0.897200000000     0.764880000000     0.444400000000    -0.163903   
N6       N      0.667960000000     0.689530000000     0.445700000000    -0.0938933  
N7       N      0.343110000000     0.189200000000     0.512970000000    -0.165306   
N8       N      0.415750000000     0.234260000000     0.430840000000    -0.16493    
N9       N      0.455800000000     0.082380000000     0.551290000000    -0.0945151  
N10      N      0.681290000000     0.473730000000     0.582120000000    -0.165932   
N11      N      0.615190000000     0.424680000000     0.499500000000    -0.164431   
N12      N      0.543290000000     0.516000000000     0.666790000000    -0.091903   
N13      N      0.885490000000     0.000330000000     0.285480000000    -0.163991   
N14      N      0.822870000000     0.078870000000     0.225420000000    -0.164832   
N15      N      0.755500000000     0.973490000000     0.381890000000    -0.0904721  
N16      N      0.652890000000     0.265760000000     0.149690000000    -0.165528   
N17      N      0.597970000000     0.297240000000     0.245120000000    -0.164804   
N18      N      0.506010000000     0.221890000000     0.076330000000    -0.0928776  
N19      N      0.375970000000     0.987310000000     0.812790000000    -0.164224   
N20      N      0.310560000000     0.074160000000     0.768930000000    -0.165163   
N21      N      0.245910000000     0.936240000000     0.898650000000    -0.0947748  
N22      N      0.651150000000     0.744000000000     0.677020000000    -0.163921   
N23      N      0.574040000000     0.818680000000     0.729940000000    -0.165245   
N24      N      0.800430000000     0.821800000000     0.658120000000    -0.0968115  
N25      N      0.638770000000     0.998430000000     0.040780000000    -0.164446   
N26      N      0.567410000000     0.914370000000     0.996900000000    -0.165256   
N27      N      0.794680000000     0.930540000000     0.065320000000    -0.0979141  
N28      N      0.086310000000     0.819840000000     0.242590000000    -0.16641    
N29      N      0.155340000000     0.732050000000     0.204260000000    -0.164654   
N30      N      0.222820000000     0.899830000000     0.297760000000    -0.0924177  
N31      N      0.336870000000     0.673150000000     0.004070000000    -0.164074   
N32      N      0.391390000000     0.725080000000     0.917200000000    -0.163826   
N33      N      0.461130000000     0.569850000000     0.024070000000    -0.0933722  
N34      N      0.364850000000     0.558230000000     0.259520000000    -0.164811   
N35      N      0.435630000000     0.501880000000     0.334280000000    -0.16515    
N36      N      0.483950000000     0.661060000000     0.226500000000    -0.0935481  
N37      N      0.085680000000     0.358890000000     0.737360000000    -0.165579   
N38      N      0.145020000000     0.268080000000     0.697250000000    -0.165289   
N39      N      0.227540000000     0.431170000000     0.792570000000    -0.0899878  
N40      N      0.897050000000     0.263530000000     0.914430000000    -0.164719   
N41      N      0.827560000000     0.179560000000     0.959410000000    -0.164543   
N42      N      0.783630000000     0.300910000000     0.809690000000    -0.0964194  
N43      N      0.917160000000     0.540080000000     0.844860000000    -0.165795   
N44      N      0.852670000000     0.571850000000     0.754270000000    -0.164491   
N45      N      0.086930000000     0.583610000000     0.819100000000    -0.0933305  
N46      N      0.099170000000     0.428010000000     0.011080000000    -0.164259   
N47      N      0.172040000000     0.472210000000     0.091820000000    -0.165334   
N48      N      0.950590000000     0.391880000000     0.081980000000    -0.0993535  
O1       O      0.905170000000     0.348690000000     0.881170000000    -0.487538   
O2       O      0.992670000000     0.311990000000     0.907390000000    -0.508919   
O3       O      0.913890000000     0.454650000000     0.877010000000    -0.491616   
O4       O      0.093060000000     0.398460000000     0.925440000000    -0.487588   
O5       O      0.088480000000     0.388100000000     0.823390000000    -0.485673   
O6       O      0.004960000000     0.424770000000     0.961120000000    -0.503585   
O7       O      0.004070000000     0.481370000000     0.845690000000    -0.501612   
O8       O      0.995990000000     0.367360000000     0.791790000000    -0.506895   
O9       O      0.353060000000     0.599200000000     0.178910000000    -0.481466   
O10      O      0.266870000000     0.572080000000     0.216690000000    -0.509133   
O11      O      0.248590000000     0.654680000000     0.058080000000    -0.505053   
O12      O      0.257780000000     0.531330000000     0.094170000000    -0.505748   
O13      O      0.250940000000     0.689020000000     0.181920000000    -0.505697   
O14      O      0.169480000000     0.553920000000     0.131820000000    -0.493783   
O15      O      0.342300000000     0.629730000000     0.083840000000    -0.485037   
O16      O      0.161640000000     0.656080000000     0.154290000000    -0.493173   
O17      O      0.383650000000     0.902410000000     0.846810000000    -0.481608   
O18      O      0.472360000000     0.942800000000     0.830420000000    -0.504633   
O19      O      0.478690000000     0.904860000000     0.942000000000    -0.505481   
O20      O      0.482160000000     0.776250000000     0.899500000000    -0.505029   
O21      O      0.483940000000     0.819030000000     0.784290000000    -0.507491   
O22      O      0.388970000000     0.809120000000     0.881970000000    -0.484635   
O23      O      0.567420000000     0.867680000000     0.919140000000    -0.492141   
O24      O      0.569490000000     0.858000000000     0.811470000000    -0.493775   
O25      O      0.647170000000     0.184810000000     0.106750000000    -0.484329   
O26      O      0.740570000000     0.211190000000     0.131670000000    -0.509475   
O27      O      0.732590000000     0.092170000000     0.172930000000    -0.50734    
O28      O      0.732320000000     0.048160000000     0.055300000000    -0.502527   
O29      O      0.736140000000     0.170560000000     0.011590000000    -0.506103   
O30      O      0.641740000000     0.082250000000     0.077690000000    -0.488581   
O31      O      0.825100000000     0.115580000000     0.142650000000    -0.489277   
O32      O      0.825830000000     0.139760000000     0.040730000000    -0.490318   
O33      O      0.422910000000     0.314420000000     0.388160000000    -0.494477   
O34      O      0.510800000000     0.282260000000     0.419520000000    -0.507779   
O35      O      0.509690000000     0.323710000000     0.295050000000    -0.506846   
O36      O      0.520560000000     0.441970000000     0.335570000000    -0.508494   
O37      O      0.520950000000     0.398540000000     0.457380000000    -0.508229   
O38      O      0.430560000000     0.418330000000     0.370110000000    -0.493703   
O39      O      0.604600000000     0.337010000000     0.326450000000    -0.492607   
O40      O      0.611380000000     0.380310000000     0.420370000000    -0.489572   
O41      O      0.844430000000     0.636490000000     0.571570000000    -0.493168   
O42      O      0.750640000000     0.655040000000     0.541360000000    -0.500955   
O43      O      0.671940000000     0.558610000000     0.615970000000    -0.4859     
O44      O      0.848660000000     0.611020000000     0.672520000000    -0.488149   
O45      O      0.747730000000     0.698110000000     0.663270000000    -0.502923   
O46      O      0.759750000000     0.581200000000     0.704190000000    -0.507355   
O47      O      0.764390000000     0.535520000000     0.586170000000    -0.508904   
O48      O      0.660390000000     0.663680000000     0.633830000000    -0.487118   
O49      O      0.980460000000     0.958630000000     0.312410000000    -0.504875   
O50      O      0.890760000000     0.926410000000     0.339360000000    -0.481251   
O51      O      0.078880000000     0.869960000000     0.318530000000    -0.488167   
O52      O      0.072340000000     0.907710000000     0.415790000000    -0.487944   
O53      O      0.895760000000     0.835430000000     0.386840000000    -0.485926   
O54      O      0.981300000000     0.943920000000     0.432500000000    -0.498271   
O55      O      0.992340000000     0.833180000000     0.291240000000    -0.509596   
O56      O      0.987560000000     0.813240000000     0.418890000000    -0.506444   
O57      O      0.138540000000     0.094270000000     0.614670000000    -0.490448   
O58      O      0.228400000000     0.058140000000     0.592700000000    -0.503359   
O59      O      0.235320000000     0.216560000000     0.679110000000    -0.507221   
O60      O      0.225290000000     0.088830000000     0.711650000000    -0.506711   
O61      O      0.245190000000     0.180340000000     0.557800000000    -0.508868   
O62      O      0.317770000000     0.121710000000     0.692130000000    -0.488959   
O63      O      0.143540000000     0.189790000000     0.650590000000    -0.490348   
O64      O      0.329350000000     0.145860000000     0.592270000000    -0.487492   


