data_structure

_audit_creation_method RASPA-1.0
_audit_creation_date 2023-5-22
_audit_author_name 'Poobodin Mano'

_cell_length_a    19.5831
_cell_length_b    19.8598
_cell_length_c    18.4235
_cell_angle_alpha 90
_cell_angle_beta  90
_cell_angle_gamma 90
_cell_volume      7165.2

_symmetry_cell_setting          triclinic
_symmetry_space_group_name_Hall 'P 1'
_symmetry_space_group_name_H-M  'P 1'
_symmetry_Int_Tables_number     1

_symmetry_equiv_pos_as_xyz 'x,y,z'

loop_
_atom_site_label
_atom_site_type_symbol
_atom_site_fract_x
_atom_site_fract_y
_atom_site_fract_z
_atom_site_charge
C1       C      0.226700000000     0.639530000000     0.149140000000     0.409932   
C2       C      0.116960000000     0.522290000000     0.972140000000     0.413762   
C3       C      0.224170000000     0.415310000000     0.132920000000     0.404146   
C4       C      0.035570000000     0.535590000000     0.191660000000     0.401617   
C5       C      0.360600000000     0.846390000000     0.228430000000     0.408333   
C6       C      0.272790000000     0.003510000000     0.396950000000     0.403947   
C7       C      0.352400000000     0.828250000000     0.459690000000     0.406639   
C8       C      0.483470000000     0.992870000000     0.324170000000     0.407375   
C9       C      0.710070000000     0.156310000000     0.953670000000     0.414532   
C10      C      0.636790000000     0.043310000000     0.118520000000     0.399483   
C11      C      0.537030000000     0.991870000000     0.915070000000     0.406788   
C12      C      0.743000000000     0.939930000000     0.918720000000     0.402748   
C13      C      0.800540000000     0.476780000000     0.291010000000     0.410482   
C14      C      0.577170000000     0.432960000000     0.298530000000     0.407308   
C15      C      0.722740000000     0.330410000000     0.141090000000     0.407494   
C16      C      0.713670000000     0.282930000000     0.377220000000     0.407975   
C17      C      0.332480000000     0.621380000000     0.613350000000     0.411298   
C18      C      0.379240000000     0.505900000000     0.434690000000     0.41293    
C19      C      0.480230000000     0.447940000000     0.645180000000     0.411311   
C20      C      0.266890000000     0.405670000000     0.620060000000     0.402197   
C21      C      0.940410000000     0.566110000000     0.760120000000     0.410117   
C22      C      0.720360000000     0.506700000000     0.716460000000     0.409637   
C23      C      0.778830000000     0.711480000000     0.781870000000     0.405074   
C24      C      0.831360000000     0.643080000000     0.566350000000     0.413878   
C25      C      0.827230000000     0.086520000000     0.540810000000     0.397609   
C26      C      0.889360000000     0.871260000000     0.539380000000     0.400824   
C27      C      0.037490000000     0.041520000000     0.525660000000     0.413955   
C28      C      0.921180000000     0.991140000000     0.734220000000     0.404905   
C29      C      0.240270000000     0.197090000000     0.027920000000     0.41548    
C30      C      0.293000000000     0.046520000000     0.873270000000     0.401145   
C31      C      0.070480000000     0.076460000000     0.912170000000     0.406043   
C32      C      0.177560000000     0.222170000000     0.794630000000     0.408819   
C33      C      0.892650000000     0.043480000000     0.852100000000    -0.00900332 
C34      C      0.971680000000     0.942730000000     0.845160000000    -0.0203737  
C35      C      0.947020000000     0.086140000000     0.890530000000    -0.0067663  
C36      C      0.002140000000     0.971890000000     0.915940000000     0.0290854  
C37      C      0.930950000000     0.758890000000     0.507670000000    -0.0105077  
C38      C      0.800630000000     0.789060000000     0.509630000000    -0.0223814  
C39      C      0.910200000000     0.689710000000     0.476830000000    -0.00982828 
C40      C      0.790990000000     0.722040000000     0.469780000000     0.0315554  
C41      C      0.160600000000     0.382280000000     0.687190000000    -0.0136228  
C42      C      0.221610000000     0.290360000000     0.617220000000    -0.0208798  
C43      C      0.158980000000     0.338130000000     0.755010000000    -0.00498623 
C44      C      0.175360000000     0.242920000000     0.662270000000     0.0304331  
C45      C      0.549260000000     0.429760000000     0.755890000000    -0.0119133  
C46      C      0.595550000000     0.401560000000     0.630850000000    -0.0205668  
C47      C      0.613200000000     0.471160000000     0.773500000000    -0.0059622  
C48      C      0.665730000000     0.403340000000     0.669230000000     0.0308997  
C49      C      0.727490000000     0.111420000000     0.464060000000    -0.0128775  
C50      C      0.786740000000     0.203350000000     0.537760000000    -0.020878   
C51      C      0.720830000000     0.162410000000     0.402260000000    -0.00622938 
C52      C      0.730580000000     0.248580000000     0.505050000000     0.0318537  
C53      C      0.455100000000     0.412600000000     0.317810000000    -0.00919114 
C54      C      0.510030000000     0.531400000000     0.333530000000    -0.0211925  
C55      C      0.385220000000     0.447960000000     0.318110000000    -0.0118221  
C56      C      0.437280000000     0.558950000000     0.327690000000     0.0306632  
C57      C      0.461630000000     0.981800000000     0.808160000000    -0.011708   
C58      C      0.426430000000     0.935220000000     0.930760000000    -0.0208339  
C59      C      0.395100000000     0.021670000000     0.801490000000    -0.00616434 
C60      C      0.353310000000     0.939620000000     0.899320000000     0.031243   
C61      C      0.741620000000     0.830280000000     0.781520000000    -0.0115468  
C62      C      0.762330000000     0.769270000000     0.899890000000    -0.0217238  
C63      C      0.787380000000     0.887580000000     0.808010000000    -0.0099435  
C64      C      0.807490000000     0.828460000000     0.924290000000     0.0259405  
C65      C      0.790610000000     0.255660000000     0.063990000000    -0.0094799  
C66      C      0.671920000000     0.301350000000     0.023790000000    -0.0217855  
C67      C      0.802110000000     0.234560000000     0.984670000000    -0.0102984  
C68      C      0.693320000000     0.282030000000     0.946530000000     0.0308457  
C69      C      0.099450000000     0.083300000000     0.417990000000    -0.0118773  
C70      C      0.160110000000     0.062910000000     0.538340000000    -0.0210578  
C71      C      0.157000000000     0.046080000000     0.378750000000    -0.00602197 
C72      C      0.225120000000     0.076330000000     0.493190000000     0.0316006  
C73      C      0.643000000000     0.993010000000     0.240400000000    -0.0106915  
C74      C      0.597010000000     0.111350000000     0.222410000000    -0.0239121  
C75      C      0.609190000000     0.001230000000     0.315100000000    -0.00964431 
C76      C      0.532740000000     0.094270000000     0.267230000000     0.03062    
C77      C      0.278480000000     0.740850000000     0.511150000000    -0.00914719 
C78      C      0.397070000000     0.766970000000     0.565910000000    -0.0227648  
C79      C      0.256800000000     0.715630000000     0.586290000000    -0.0108309  
C80      C      0.368250000000     0.741420000000     0.638470000000     0.029747   
C81      C      0.217490000000     0.240720000000     0.151000000000    -0.00946366 
C82      C      0.329810000000     0.264220000000     0.088580000000    -0.0223116  
C83      C      0.236960000000     0.304760000000     0.193220000000    -0.0114617  
C84      C      0.317920000000     0.340860000000     0.092880000000     0.0318505  
C85      C      0.912590000000     0.557180000000     0.189860000000    -0.0105351  
C86      C      0.970680000000     0.498110000000     0.298550000000    -0.0228398  
C87      C      0.855170000000     0.577870000000     0.241590000000    -0.0107665  
C88      C      0.910570000000     0.523140000000     0.344750000000     0.0277459  
C89      C      0.019920000000     0.477950000000     0.802170000000    -0.0111385  
C90      C      0.050070000000     0.602550000000     0.810170000000    -0.0185798  
C91      C      0.046000000000     0.468710000000     0.879730000000    -0.00770848 
C92      C      0.113280000000     0.576730000000     0.851730000000     0.0266343  
C93      C      0.235490000000     0.763330000000     0.155310000000    -0.0104769  
C94      C      0.335790000000     0.687300000000     0.191780000000    -0.0226436  
C95      C      0.287760000000     0.814440000000     0.126410000000    -0.0114165  
C96      C      0.383010000000     0.740040000000     0.157560000000     0.0303384  
H1       H      0.943950000000     0.894760000000     0.854750000000     0.0414235  
H2       H      0.860340000000     0.018970000000     0.893870000000     0.0467781  
H3       H      0.925130000000     0.108290000000     0.940760000000     0.0415623  
H4       H      0.015140000000     0.929320000000     0.808990000000     0.0542695  
H5       H      0.052660000000     0.947620000000     0.924500000000     0.0451477  
H6       H      0.858630000000     0.076630000000     0.819580000000     0.0536611  
H7       H      0.960960000000     0.128770000000     0.854220000000     0.0515485  
H8       H      0.778860000000     0.785860000000     0.565400000000     0.0624403  
H9       H      0.954390000000     0.750880000000     0.562010000000     0.0467861  
H10      H      0.947420000000     0.650580000000     0.494230000000     0.0464173  
H11      H      0.772000000000     0.829470000000     0.480770000000     0.0510512  
H12      H      0.802810000000     0.731250000000     0.411480000000     0.0307858  
H13      H      0.971790000000     0.780760000000     0.472950000000     0.0450412  
H14      H      0.912360000000     0.692120000000     0.416520000000     0.034425   
H15      H      0.210480000000     0.287140000000     0.558090000000     0.0476794  
H16      H      0.111750000000     0.376610000000     0.657200000000     0.0422452  
H17      H      0.109010000000     0.344080000000     0.782850000000     0.0383082  
H18      H      0.275240000000     0.272640000000     0.623340000000     0.0526367  
H19      H      0.198450000000     0.191860000000     0.659320000000     0.0420921  
H20      H      0.164400000000     0.435810000000     0.703490000000     0.0505591  
H21      H      0.198890000000     0.356050000000     0.793440000000     0.0503122  
H22      H      0.582300000000     0.350390000000     0.610900000000     0.0466705  
H23      H      0.555960000000     0.377820000000     0.777060000000     0.0420465  
H24      H      0.631860000000     0.457920000000     0.828680000000     0.0400225  
H25      H      0.599520000000     0.433400000000     0.581270000000     0.0548207  
H26      H      0.705340000000     0.407500000000     0.626200000000     0.0440891  
H27      H      0.504670000000     0.451870000000     0.784640000000     0.0503724  
H28      H      0.598660000000     0.525330000000     0.774960000000     0.0512236  
H29      H      0.787580000000     0.207060000000     0.598110000000     0.051037   
H30      H      0.678080000000     0.107430000000     0.493310000000     0.0448947  
H31      H      0.672750000000     0.152260000000     0.372550000000     0.0391398  
H32      H      0.837130000000     0.222870000000     0.519420000000     0.0517457  
H33      H      0.746800000000     0.301780000000     0.512780000000     0.0424218  
H34      H      0.737710000000     0.061050000000     0.440030000000     0.0486656  
H35      H      0.763530000000     0.154950000000     0.363240000000     0.046579   
H36      H      0.528620000000     0.535830000000     0.390470000000     0.0568077  
H37      H      0.460380000000     0.383660000000     0.369200000000     0.0469049  
H38      H      0.345500000000     0.413140000000     0.339420000000     0.0506246  
H39      H      0.544650000000     0.562480000000     0.299160000000     0.0527941  
H40      H      0.425340000000     0.563240000000     0.268800000000     0.0321258  
H41      H      0.456200000000     0.375050000000     0.273050000000     0.0469031  
H42      H      0.370950000000     0.460730000000     0.261310000000     0.0431507  
H43      H      0.443040000000     0.882240000000     0.939730000000     0.0437556  
H44      H      0.455340000000     0.932410000000     0.780630000000     0.0400388  
H45      H      0.372420000000     0.013440000000     0.746890000000     0.0421028  
H46      H      0.425550000000     0.958650000000     0.985670000000     0.0527549  
H47      H      0.317200000000     0.936890000000     0.945800000000     0.0433625  
H48      H      0.503070000000     0.009050000000     0.779210000000     0.0506985  
H49      H      0.407450000000     0.076260000000     0.805590000000     0.0529681  
H50      H      0.709500000000     0.777260000000     0.920470000000     0.046475   
H51      H      0.687730000000     0.843190000000     0.794540000000     0.0421128  
H52      H      0.772580000000     0.935370000000     0.780820000000     0.0486527  
H53      H      0.781810000000     0.721270000000     0.923230000000     0.0543995  
H54      H      0.859890000000     0.817220000000     0.904400000000     0.0333057  
H55      H      0.746100000000     0.826040000000     0.721540000000     0.0507798  
H56      H      0.840500000000     0.875670000000     0.791290000000     0.0403587  
H57      H      0.632660000000     0.265370000000     0.044080000000     0.0560563  
H58      H      0.783160000000     0.209390000000     0.097100000000     0.04686    
H59      H      0.836870000000     0.190360000000     0.982540000000     0.0450712  
H60      H      0.647950000000     0.352230000000     0.023150000000     0.0499283  
H61      H      0.724800000000     0.324340000000     0.925230000000     0.0317443  
H62      H      0.837810000000     0.280310000000     0.084590000000     0.0462543  
H63      H      0.827990000000     0.276550000000     0.955620000000     0.0381494  
H64      H      0.155010000000     0.098950000000     0.584180000000     0.0480113  
H65      H      0.108840000000     0.138370000000     0.414880000000     0.041698   
H66      H      0.167610000000     0.071160000000     0.325970000000     0.0430898  
H67      H      0.165810000000     0.012620000000     0.564350000000     0.0514109  
H68      H      0.269040000000     0.057120000000     0.525360000000     0.0426501  
H69      H      0.050630000000     0.073630000000     0.389030000000     0.0492947  
H70      H      0.139300000000     0.994150000000     0.365990000000     0.0506038  
H71      H      0.637000000000     0.134570000000     0.257070000000     0.0467084  
H72      H      0.699350000000     0.989910000000     0.246900000000     0.041345   
H73      H      0.640200000000     0.036880000000     0.347730000000     0.0353859  
H74      H      0.583710000000     0.149290000000     0.180270000000     0.0549649  
H75      H      0.488940000000     0.091510000000     0.228850000000     0.0454674  
H76      H      0.625900000000     0.944600000000     0.216010000000     0.0522355  
H77      H      0.609260000000     0.952070000000     0.343960000000     0.0501894  
H78      H      0.430360000000     0.727610000000     0.541390000000     0.0541523  
H79      H      0.288050000000     0.696600000000     0.475570000000     0.0464303  
H80      H      0.215290000000     0.677750000000     0.580760000000     0.0496969  
H81      H      0.429400000000     0.812180000000     0.575820000000     0.0528205  
H82      H      0.342020000000     0.784960000000     0.664430000000     0.0325218  
H83      H      0.235090000000     0.769290000000     0.487080000000     0.0471986  
H84      H      0.235780000000     0.758770000000     0.617720000000     0.0394521  
H85      H      0.358530000000     0.246320000000     0.137130000000     0.043732   
H86      H      0.220800000000     0.196280000000     0.187490000000     0.0394392  
H87      H      0.279720000000     0.292440000000     0.230680000000     0.0387562  
H88      H      0.361170000000     0.251970000000     0.039970000000     0.0544066  
H89      H      0.306470000000     0.359080000000     0.037060000000     0.0474143  
H90      H      0.163420000000     0.245150000000     0.133060000000     0.0510974  
H91      H      0.193050000000     0.321300000000     0.227040000000     0.0509059  
H92      H      0.964010000000     0.443560000000     0.286510000000     0.050668   
H93      H      0.894080000000     0.515030000000     0.155310000000     0.046114   
H94      H      0.807050000000     0.585130000000     0.210530000000     0.0503945  
H95      H      0.019010000000     0.503630000000     0.329870000000     0.0522761  
H96      H      0.923970000000     0.575040000000     0.362440000000     0.0310042  
H97      H      0.923770000000     0.600270000000     0.153130000000     0.0479236  
H98      H      0.868630000000     0.627210000000     0.266420000000     0.0378509  
H99      H      0.064820000000     0.632190000000     0.761270000000     0.0476395  
H100     H      0.060440000000     0.463140000000     0.763470000000     0.0381747  
H101     H      0.070680000000     0.418550000000     0.885110000000     0.0426644  
H102     H      0.022850000000     0.638830000000     0.846030000000     0.0509069  
H103     H      0.134690000000     0.620590000000     0.881550000000     0.04399    
H104     H      0.976170000000     0.443270000000     0.793120000000     0.0480098  
H105     H      0.001460000000     0.468790000000     0.917260000000     0.0493766  
H106     H      0.334100000000     0.694860000000     0.251560000000     0.0501178  
H107     H      0.217880000000     0.780500000000     0.209620000000     0.0449526  
H108     H      0.266290000000     0.866190000000     0.129810000000     0.0525318  
H109     H      0.356450000000     0.636010000000     0.181190000000     0.0516384  
H110     H      0.385240000000     0.728740000000     0.098410000000     0.0331844  
H111     H      0.190330000000     0.763430000000     0.118720000000     0.050568   
H112     H      0.297470000000     0.803480000000     0.068070000000     0.0399533  
In1      In     0.152180000000     0.529560000000     0.113380000000     2.41041    
In2      In     0.370840000000     0.918670000000     0.352150000000     2.43002    
In3      In     0.656550000000     0.032390000000     0.974440000000     2.41937    
In4      In     0.703120000000     0.380870000000     0.276040000000     2.40178    
In5      In     0.365290000000     0.493190000000     0.580050000000     2.41885    
In6      In     0.817970000000     0.602400000000     0.705600000000     2.41618    
In7      In     0.920260000000     0.996540000000     0.586990000000     2.39074    
In8      In     0.194340000000     0.135930000000     0.905950000000     2.41459    
N1       N      0.008080000000     0.045880000000     0.909470000000    -0.16799    
N2       N      0.926240000000     0.991230000000     0.808170000000    -0.164332   
N3       N      0.840650000000     0.674280000000     0.500620000000    -0.169162   
N4       N      0.873830000000     0.807880000000     0.515720000000    -0.16438    
N5       N      0.170370000000     0.266300000000     0.738330000000    -0.168502   
N6       N      0.217370000000     0.361210000000     0.640490000000    -0.16225    
N7       N      0.668690000000     0.460640000000     0.720230000000    -0.169584   
N8       N      0.539490000000     0.426800000000     0.676860000000    -0.163949   
N9       N      0.720790000000     0.232860000000     0.427500000000    -0.17007    
N10      N      0.781110000000     0.132260000000     0.515340000000    -0.160784   
N11      N      0.391200000000     0.509400000000     0.361490000000    -0.169284   
N12      N      0.514080000000     0.459480000000     0.311880000000    -0.165142   
N13      N      0.344850000000     0.002850000000     0.857850000000    -0.166796   
N14      N      0.477170000000     0.970270000000     0.885200000000    -0.164215   
N15      N      0.782890000000     0.890770000000     0.887830000000    -0.169301   
N16      N      0.760190000000     0.767560000000     0.819760000000    -0.164867   
N17      N      0.735640000000     0.220690000000     0.951410000000    -0.169299   
N18      N      0.730510000000     0.300270000000     0.074890000000    -0.165478   
N19      N      0.220460000000     0.042580000000     0.421900000000    -0.168234   
N20      N      0.097010000000     0.062760000000     0.494650000000    -0.165158   
N21      N      0.540120000000     0.029280000000     0.305720000000    -0.16901    
N22      N      0.625890000000     0.049220000000     0.191340000000    -0.162401   
N23      N      0.317440000000     0.688390000000     0.622480000000    -0.167946   
N24      N      0.341540000000     0.782330000000     0.513680000000    -0.165037   
N25      N      0.260060000000     0.356870000000     0.141670000000    -0.167878   
N26      N      0.262870000000     0.230490000000     0.088000000000    -0.165672   
N27      N      0.849230000000     0.526180000000     0.298010000000    -0.168205   
N28      N      0.975050000000     0.534740000000     0.228530000000    -0.164882   
N29      N      0.094440000000     0.521770000000     0.902020000000    -0.169601   
N30      N      0.001920000000     0.548790000000     0.789440000000    -0.164513   
N31      N      0.351060000000     0.806750000000     0.168280000000    -0.169347   
N32      N      0.265550000000     0.695120000000     0.163110000000    -0.166824   
O1       O      0.039850000000     0.555310000000     0.126790000000    -0.504021   
O2       O      0.090840000000     0.514010000000     0.218310000000    -0.489919   
O3       O      0.155940000000     0.567410000000     0.996720000000    -0.503564   
O4       O      0.166350000000     0.643210000000     0.125960000000    -0.504859   
O5       O      0.172680000000     0.429950000000     0.171050000000    -0.492765   
O6       O      0.248680000000     0.580380000000     0.157020000000    -0.507605   
O7       O      0.097810000000     0.479250000000     0.018260000000    -0.502555   
O8       O      0.239420000000     0.458360000000     0.085120000000    -0.498214   
O9       O      0.423880000000     0.012670000000     0.309580000000    -0.51147    
O10      O      0.486500000000     0.936180000000     0.354970000000    -0.499546   
O11      O      0.268720000000     0.970980000000     0.338140000000    -0.49214    
O12      O      0.325670000000     0.898680000000     0.240080000000    -0.495001   
O13      O      0.405260000000     0.864740000000     0.456170000000    -0.493662   
O14      O      0.401060000000     0.831250000000     0.279040000000    -0.509112   
O15      O      0.327660000000     0.995070000000     0.432000000000    -0.506684   
O16      O      0.310230000000     0.837000000000     0.408830000000    -0.514623   
O17      O      0.725910000000     0.940440000000     0.984730000000    -0.491606   
O18      O      0.717810000000     0.987390000000     0.881890000000    -0.511405   
O19      O      0.617540000000     0.087580000000     0.073870000000    -0.504786   
O20      O      0.745820000000     0.106450000000     0.973110000000    -0.513088   
O21      O      0.553520000000     0.978710000000     0.979580000000    -0.511266   
O22      O      0.647990000000     0.142710000000     0.942590000000    -0.497464   
O23      O      0.666180000000     0.992850000000     0.090600000000    -0.483376   
O24      O      0.580050000000     0.026630000000     0.880680000000    -0.49833    
O25      O      0.712320000000     0.344620000000     0.393740000000    -0.493927   
O26      O      0.708810000000     0.270840000000     0.310200000000    -0.505303   
O27      O      0.630790000000     0.468010000000     0.300010000000    -0.501039   
O28      O      0.753650000000     0.479930000000     0.244100000000    -0.500428   
O29      O      0.668980000000     0.361200000000     0.159140000000    -0.502745   
O30      O      0.799240000000     0.424130000000     0.329260000000    -0.492562   
O31      O      0.586770000000     0.371250000000     0.285870000000    -0.499791   
O32      O      0.767270000000     0.326550000000     0.190430000000    -0.501657   
O33      O      0.267890000000     0.466100000000     0.641210000000    -0.498184   
O34      O      0.315710000000     0.389210000000     0.579060000000    -0.498384   
O35      O      0.406440000000     0.545510000000     0.479490000000    -0.506742   
O36      O      0.390360000000     0.596420000000     0.627030000000    -0.496075   
O37      O      0.430560000000     0.471340000000     0.680760000000    -0.50277    
O38      O      0.290740000000     0.580720000000     0.584710000000    -0.500813   
O39      O      0.344520000000     0.459410000000     0.463230000000    -0.496568   
O40      O      0.471530000000     0.446770000000     0.577430000000    -0.51211    
O41      O      0.880030000000     0.617060000000     0.601470000000    -0.504567   
O42      O      0.775700000000     0.645360000000     0.600600000000    -0.496002   
O43      O      0.723960000000     0.556310000000     0.758890000000    -0.506647   
O44      O      0.895600000000     0.523370000000     0.742570000000    -0.50612    
O45      O      0.779810000000     0.710020000000     0.713450000000    -0.498223   
O46      O      0.923630000000     0.626620000000     0.749560000000    -0.505657   
O47      O      0.766950000000     0.504310000000     0.669200000000    -0.503958   
O48      O      0.797360000000     0.657480000000     0.812310000000    -0.491107   
O49      O      0.951380000000     0.948580000000     0.695020000000    -0.503882   
O50      O      0.888440000000     0.035150000000     0.699440000000    -0.495449   
O51      O      0.844400000000     0.912510000000     0.560260000000    -0.48748    
O52      O      0.824660000000     0.024810000000     0.524350000000    -0.487794   
O53      O      0.033170000000     0.026070000000     0.591830000000    -0.504054   
O54      O      0.876460000000     0.102940000000     0.581560000000    -0.487996   
O55      O      0.949900000000     0.892790000000     0.543270000000    -0.500833   
O56      O      0.982880000000     0.034450000000     0.490340000000    -0.505948   
O57      O      0.185450000000     0.159640000000     0.785310000000    -0.493231   
O58      O      0.177490000000     0.241060000000     0.860130000000    -0.502668   
O59      O      0.284710000000     0.100770000000     0.838660000000    -0.493076   
O60      O      0.182430000000     0.169360000000     0.024640000000    -0.507953   
O61      O      0.077840000000     0.139110000000     0.904510000000    -0.504193   
O62      O      0.274710000000     0.193460000000     0.970400000000    -0.511677   
O63      O      0.250840000000     0.036820000000     0.924110000000    -0.491273   
O64      O      0.125490000000     0.044070000000     0.918980000000    -0.495321   
S1       S      0.956360000000     0.952640000000     0.986020000000    -0.00701201 
S2       S      0.712770000000     0.695530000000     0.472390000000     0.0150801  
S3       S      0.099810000000     0.236840000000     0.627400000000    -0.00647575 
S4       S      0.681300000000     0.333970000000     0.712040000000    -0.0095514  
S5       S      0.659160000000     0.239460000000     0.547780000000    -0.00889228 
S6       S      0.430490000000     0.634190000000     0.361150000000     0.00956551 
S7       S      0.336160000000     0.875760000000     0.847930000000    -0.0132517  
S8       S      0.812690000000     0.832630000000     0.011950000000     0.0152923  
S9       S      0.628390000000     0.275470000000     0.892500000000     0.00873044 
S10      S      0.238210000000     0.155950000000     0.481890000000    -0.0110924  
S11      S      0.516370000000     0.153570000000     0.324720000000    -0.00243877 
S12      S      0.427920000000     0.718620000000     0.694200000000     0.0113352  
S13      S      0.386120000000     0.379000000000     0.120030000000    -0.0068716  
S14      S      0.901310000000     0.479470000000     0.418380000000     0.01714    
S15      S      0.172480000000     0.551660000000     0.797020000000     0.00420208 
S16      S      0.460730000000     0.734390000000     0.187170000000     0.00751714 


