data_structure

_audit_creation_method RASPA-1.0
_audit_creation_date 2023-5-22
_audit_author_name 'Poobodin Mano'

_cell_length_a    23.8597
_cell_length_b    25.602
_cell_length_c    25.4653
_cell_angle_alpha 90
_cell_angle_beta  90
_cell_angle_gamma 90
_cell_volume      15555.6

_symmetry_cell_setting          triclinic
_symmetry_space_group_name_Hall 'P 1'
_symmetry_space_group_name_H-M  'P 1'
_symmetry_Int_Tables_number     1

_symmetry_equiv_pos_as_xyz 'x,y,z'

loop_
_atom_site_label
_atom_site_type_symbol
_atom_site_fract_x
_atom_site_fract_y
_atom_site_fract_z
_atom_site_charge
C1       C      0.970270000000     0.434910000000     0.928360000000     0.423061   
C2       C      0.845410000000     0.307050000000     0.918230000000     0.404593   
C3       C      0.853260000000     0.431420000000     0.795110000000     0.408261   
C4       C      0.980500000000     0.310820000000     0.801840000000     0.419994   
C5       C      0.096390000000     0.676540000000     0.183410000000     0.409003   
C6       C      0.102830000000     0.543190000000     0.066910000000     0.405205   
C7       C      0.227510000000     0.673230000000     0.073280000000     0.400653   
C8       C      0.218540000000     0.551590000000     0.201790000000     0.424531   
C9       C      0.338680000000     0.804320000000     0.939040000000     0.418442   
C10      C      0.458850000000     0.812820000000     0.814590000000     0.42214    
C11      C      0.331760000000     0.936210000000     0.823230000000     0.411332   
C12      C      0.467230000000     0.930490000000     0.943470000000     0.406005   
C13      C      0.722320000000     0.190720000000     0.057930000000     0.420657   
C14      C      0.589900000000     0.072950000000     0.056220000000     0.418675   
C15      C      0.708200000000     0.068190000000     0.187520000000     0.406514   
C16      C      0.596520000000     0.200710000000     0.181470000000     0.421341   
C17      C      0.476510000000     0.429670000000     0.448850000000     0.402749   
C18      C      0.467480000000     0.297790000000     0.326790000000     0.405856   
C19      C      0.353400000000     0.307280000000     0.458810000000     0.419441   
C20      C      0.350310000000     0.424410000000     0.322980000000     0.406974   
C21      C      0.713480000000     0.565330000000     0.692800000000     0.425576   
C22      C      0.596890000000     0.698380000000     0.687210000000     0.407948   
C23      C      0.728850000000     0.689220000000     0.571590000000     0.420833   
C24      C      0.590620000000     0.576380000000     0.561250000000     0.420764   
C25      C      0.962340000000     0.916570000000     0.424640000000     0.403315   
C26      C      0.834410000000     0.926290000000     0.296270000000     0.424932   
C27      C      0.953230000000     0.794120000000     0.301210000000     0.425207   
C28      C      0.826240000000     0.802280000000     0.419900000000     0.40648    
C29      C      0.218250000000     0.046520000000     0.674520000000     0.422714   
C30      C      0.085450000000     0.164890000000     0.681040000000     0.40651    
C31      C      0.211530000000     0.172470000000     0.555690000000     0.406028   
C32      C      0.086450000000     0.048030000000     0.549640000000     0.422242   
C33      C      0.986100000000     0.946360000000     0.514280000000    -0.0144276  
C34      C      0.053840000000     0.959110000000     0.440080000000    -0.063905   
C35      C      0.997570000000     0.001970000000     0.533260000000    -0.00799496 
C36      C      0.065850000000     0.014960000000     0.458950000000     0.165478   
C37      C      0.749030000000     0.794170000000     0.484280000000    -0.0132543  
C38      C      0.800610000000     0.714550000000     0.452560000000    -0.065325   
C39      C      0.758210000000     0.776490000000     0.541020000000    -0.00823293 
C40      C      0.810410000000     0.697640000000     0.509580000000     0.167578   
C41      C      0.292640000000     0.186290000000     0.496920000000    -0.0132588  
C42      C      0.225130000000     0.259590000000     0.515590000000    -0.0651249  
C43      C      0.341670000000     0.223710000000     0.505820000000    -0.00893222 
C44      C      0.274790000000     0.296800000000     0.524000000000     0.166466   
C45      C      0.492640000000     0.474300000000     0.533600000000    -0.0152704  
C46      C      0.564880000000     0.478590000000     0.461660000000    -0.064502   
C47      C      0.500350000000     0.532740000000     0.543520000000    -0.0069432  
C48      C      0.572340000000     0.537270000000     0.472130000000     0.165615   
C49      C      0.787590000000     0.052030000000     0.247830000000    -0.013421   
C50      C      0.709040000000     0.987270000000     0.240540000000    -0.0647594  
C51      C      0.830200000000     0.007570000000     0.244580000000    -0.00880261 
C52      C      0.751640000000     0.942440000000     0.237470000000     0.16641    
C53      C      0.551040000000     0.243460000000     0.308200000000    -0.0138895  
C54      C      0.470630000000     0.246270000000     0.244640000000    -0.0651153  
C55      C      0.591910000000     0.252900000000     0.262870000000    -0.00885654 
C56      C      0.511650000000     0.256330000000     0.199320000000     0.166223   
C57      C      0.243300000000     0.949830000000     0.774240000000    -0.012822   
C58      C      0.313380000000     0.022490000000     0.782920000000    -0.0640092  
C59      C      0.238300000000     0.961080000000     0.715390000000    -0.00884191 
C60      C      0.308610000000     0.033480000000     0.723830000000     0.166456   
C61      C      0.582490000000     0.742470000000     0.772330000000    -0.0139251  
C62      C      0.528500000000     0.770800000000     0.692750000000    -0.0635786  
C63      C      0.528780000000     0.743050000000     0.804660000000    -0.00710786 
C64      C      0.474470000000     0.773430000000     0.725510000000     0.165617   
C65      C      0.487150000000     0.971730000000     0.029410000000    -0.014327   
C66      C      0.559490000000     0.972220000000     0.957890000000    -0.0638816  
C67      C      0.499240000000     0.029400000000     0.040390000000    -0.00838641 
C68      C      0.572010000000     0.030040000000     0.969010000000     0.16502    
C69      C      0.079430000000     0.727420000000     0.264140000000    -0.0137404  
C70      C      0.020460000000     0.742270000000     0.183700000000    -0.0636112  
C71      C      0.026640000000     0.726720000000     0.297830000000    -0.00718946 
C72      C      0.967480000000     0.743090000000     0.217920000000     0.165719   
C73      C      0.252970000000     0.763560000000     0.049000000000    -0.0144427  
C74      C      0.312840000000     0.688240000000     0.020200000000    -0.0640497  
C75      C      0.255870000000     0.786700000000     0.993860000000    -0.00777954 
C76      C      0.316820000000     0.711840000000     0.964850000000     0.16514    
C77      C      0.343910000000     0.498290000000     0.260780000000    -0.0143622  
C78      C      0.264990000000     0.433630000000     0.268920000000    -0.0643814  
C79      C      0.301280000000     0.542830000000     0.259120000000    -0.00814103 
C80      C      0.222430000000     0.478510000000     0.267550000000     0.16611    
C81      C      0.003230000000     0.222090000000     0.694760000000    -0.0132718  
C82      C      0.063600000000     0.195540000000     0.770990000000    -0.0648191  
C83      C      0.005110000000     0.278720000000     0.713530000000    -0.00864218 
C84      C      0.064490000000     0.252370000000     0.790500000000     0.166244   
C85      C      0.754030000000     0.290950000000     0.961070000000    -0.0129316  
C86      C      0.824980000000     0.219080000000     0.953660000000    -0.0646288  
C87      C      0.743500000000     0.276220000000     0.018350000000    -0.00873668 
C88      C      0.813880000000     0.203290000000     0.010960000000     0.166393   
C89      C      0.841250000000     0.515000000000     0.747770000000    -0.0142956  
C90      C      0.773760000000     0.441140000000     0.733400000000    -0.064099   
C91      C      0.792080000000     0.552630000000     0.754290000000    -0.00729317 
C92      C      0.724240000000     0.479110000000     0.739140000000     0.165896   
C93      C      0.096520000000     0.490170000000     0.985840000000    -0.0149821  
C94      C      0.021400000000     0.484710000000     0.054600000000    -0.0645163  
C95      C      0.051550000000     0.492590000000     0.943070000000    -0.00786762 
C96      C      0.976120000000     0.487030000000     0.011800000000     0.165728   
H1       H      0.965060000000     0.028110000000     0.516290000000     0.0407397  
H2       H      0.942050000000     0.935870000000     0.523860000000     0.0499181  
H3       H      0.037300000000     0.041960000000     0.437290000000     0.00483051 
H4       H      0.058080000000     0.957680000000     0.396610000000     0.0653618  
H5       H      0.992820000000     0.002970000000     0.576680000000     0.0496937  
H6       H      0.014050000000     0.919300000000     0.536230000000     0.0436832  
H7       H      0.086030000000     0.932600000000     0.457070000000     0.0642742  
H8       H      0.123300000000     0.038040000000     0.409990000000     0.142885   
H9       H      0.797290000000     0.795120000000     0.555720000000     0.0415614  
H10      H      0.748170000000     0.837560000000     0.482810000000     0.0526277  
H11      H      0.850810000000     0.715150000000     0.522960000000     0.00492295 
H12      H      0.836120000000     0.700950000000     0.427810000000     0.0670759  
H13      H      0.722980000000     0.790780000000     0.565680000000     0.0507218  
H14      H      0.707450000000     0.779580000000     0.471090000000     0.0462859  
H15      H      0.761810000000     0.695270000000     0.438020000000     0.0674852  
H16      H      0.852110000000     0.633000000000     0.500990000000     0.142224   
H17      H      0.354320000000     0.221130000000     0.547780000000     0.0430668  
H18      H      0.305330000000     0.146400000000     0.509410000000     0.054115   
H19      H      0.285760000000     0.295940000000     0.566600000000     0.0055394  
H20      H      0.189900000000     0.271630000000     0.541480000000     0.065148   
H21      H      0.377830000000     0.210700000000     0.481610000000     0.050402   
H22      H      0.283450000000     0.185020000000     0.454130000000     0.045828   
H23      H      0.210780000000     0.263280000000     0.474200000000     0.0651762  
H24      H      0.237290000000     0.362490000000     0.539210000000     0.141648   
H25      H      0.468800000000     0.554210000000     0.519690000000     0.0405954  
H26      H      0.448460000000     0.463510000000     0.542230000000     0.0522422  
H27      H      0.542700000000     0.558760000000     0.445980000000     0.00473354 
H28      H      0.571730000000     0.470800000000     0.419180000000     0.0657437  
H29      H      0.491520000000     0.541050000000     0.585570000000     0.0508222  
H30      H      0.519960000000     0.452570000000     0.561440000000     0.0469526  
H31      H      0.597490000000     0.456930000000     0.484020000000     0.0663945  
H32      H      0.629910000000     0.556210000000     0.421570000000     0.142556   
H33      H      0.843080000000     0.003060000000     0.202850000000     0.044491   
H34      H      0.806010000000     0.087670000000     0.229820000000     0.0525304  
H35      H      0.760510000000     0.934740000000     0.195130000000     0.0075925  
H36      H      0.671280000000     0.976720000000     0.217240000000     0.0650283  
H37      H      0.868030000000     0.018790000000     0.267440000000     0.050096   
H38      H      0.779460000000     0.060520000000     0.289980000000     0.0435543  
H39      H      0.695830000000     0.991990000000     0.282160000000     0.0638677  
H40      H      0.703400000000     0.881310000000     0.234030000000     0.143324   
H41      H      0.599690000000     0.295640000000     0.260040000000     0.0416212  
H42      H      0.568240000000     0.261270000000     0.344600000000     0.0513819  
H43      H      0.516310000000     0.299480000000     0.194800000000     0.0048919  
H44      H      0.430020000000     0.265720000000     0.235900000000     0.0652026  
H45      H      0.632520000000     0.233780000000     0.272240000000     0.0501896  
H46      H      0.547700000000     0.200610000000     0.314660000000     0.0441045  
H47      H      0.462780000000     0.203510000000     0.247200000000     0.0642159  
H48      H      0.461810000000     0.260040000000     0.139060000000     0.142073   
H49      H      0.268060000000     0.935090000000     0.694220000000     0.0441347  
H50      H      0.236480000000     0.907430000000     0.781130000000     0.0512054  
H51      H      0.341350000000     0.009850000000     0.703430000000     0.00734019 
H52      H      0.356540000000     0.032010000000     0.796340000000     0.0646934  
H53      H      0.195240000000     0.950870000000     0.702260000000     0.0500079  
H54      H      0.209470000000     0.971520000000     0.794910000000     0.0436863  
H55      H      0.283830000000     0.048710000000     0.804060000000     0.0638874  
H56      H      0.359360000000     0.092210000000     0.714770000000     0.141974   
H57      H      0.510410000000     0.703130000000     0.803990000000     0.0441499  
H58      H      0.610950000000     0.711870000000     0.788100000000     0.0511099  
H59      H      0.452040000000     0.735440000000     0.720990000000     0.00582245 
H60      H      0.517710000000     0.759720000000     0.651750000000     0.0651772  
H61      H      0.539730000000     0.752250000000     0.846070000000     0.0539435  
H62      H      0.603650000000     0.780900000000     0.776980000000     0.0451512  
H63      H      0.547600000000     0.810430000000     0.691660000000     0.0648126  
H64      H      0.420670000000     0.800680000000     0.675120000000     0.142626   
H65      H      0.468870000000     0.053290000000     0.017580000000     0.042899   
H66      H      0.442290000000     0.963630000000     0.037960000000     0.0503059  
H67      H      0.545180000000     0.054010000000     0.942390000000     0.00573056 
H68      H      0.566240000000     0.964310000000     0.915420000000     0.0655899  
H69      H      0.491580000000     0.037150000000     0.082740000000     0.0529171  
H70      H      0.512940000000     0.947760000000     0.056660000000     0.0445804  
H71      H      0.589900000000     0.947980000000     0.980320000000     0.0645502  
H72      H      0.632340000000     0.044790000000     0.919860000000     0.143214   
H73      H      0.012230000000     0.685560000000     0.301510000000     0.0424791  
H74      H      0.111170000000     0.701090000000     0.282060000000     0.0508047  
H75      H      0.949990000000     0.702660000000     0.218810000000     0.00610218 
H76      H      0.009840000000     0.725920000000     0.144480000000     0.0654457  
H77      H      0.037470000000     0.740850000000     0.337840000000     0.0507912  
H78      H      0.096750000000     0.767750000000     0.264320000000     0.0448825  
H79      H      0.034870000000     0.783180000000     0.177870000000     0.0648743  
H80      H      0.909210000000     0.758090000000     0.166730000000     0.143024   
H81      H      0.218700000000     0.772930000000     0.971420000000     0.0413197  
H82      H      0.212110000000     0.774210000000     0.067040000000     0.0511699  
H83      H      0.282830000000     0.694240000000     0.940470000000     0.0048108  
H84      H      0.314210000000     0.644920000000     0.017220000000     0.0652852  
H85      H      0.253030000000     0.829930000000     0.996920000000     0.0504729  
H86      H      0.286710000000     0.781570000000     0.073080000000     0.0441922  
H87      H      0.350020000000     0.701040000000     0.043200000000     0.0644355  
H88      H      0.366560000000     0.663110000000     0.929350000000     0.14219    
H89      H      0.295750000000     0.557900000000     0.299750000000     0.0412337  
H90      H      0.382790000000     0.512420000000     0.280220000000     0.0494127  
H91      H      0.213950000000     0.490670000000     0.308890000000     0.00629395 
H92      H      0.248140000000     0.401680000000     0.293940000000     0.0672907  
H93      H      0.318760000000     0.575110000000     0.234940000000     0.0498962  
H94      H      0.354710000000     0.487430000000     0.219730000000     0.0436789  
H95      H      0.269900000000     0.418000000000     0.228420000000     0.0641948  
H96      H      0.151290000000     0.441680000000     0.271530000000     0.143575   
H97      H      0.040540000000     0.298610000000     0.693400000000     0.0418935  
H98      H      0.999930000000     0.221520000000     0.651220000000     0.0512251  
H99      H      0.102380000000     0.271670000000     0.773630000000     0.00538398 
H100     H      0.103760000000     0.176260000000     0.781720000000     0.0653345  
H101     H      0.965810000000     0.298570000000     0.701240000000     0.0504177  
H102     H      0.964880000000     0.203470000000     0.711040000000     0.0440748  
H103     H      0.029230000000     0.174510000000     0.791570000000     0.0644254  
H104     H      0.107580000000     0.246670000000     0.855040000000     0.142589   
H105     H      0.770810000000     0.300970000000     0.043520000000     0.0436852  
H106     H      0.747580000000     0.333690000000     0.956280000000     0.0521301  
H107     H      0.845300000000     0.223680000000     0.036160000000     0.00675387 
H108     H      0.869490000000     0.210650000000     0.943850000000     0.0668828  
H109     H      0.699260000000     0.285710000000     0.028190000000     0.0510828  
H110     H      0.722510000000     0.270530000000     0.936300000000     0.0447613  
H111     H      0.798280000000     0.194530000000     0.927710000000     0.0656564  
H112     H      0.861280000000     0.142010000000     0.018930000000     0.143812   
H113     H      0.781950000000     0.555320000000     0.796830000000     0.0414425  
H114     H      0.876830000000     0.528630000000     0.772410000000     0.0504444  
H115     H      0.710940000000     0.478910000000     0.781170000000     0.00555245 
H116     H      0.761040000000     0.401990000000     0.748080000000     0.0656451  
H117     H      0.805360000000     0.592100000000     0.741030000000     0.0512945  
H118     H      0.854930000000     0.516060000000     0.706030000000     0.0461222  
H119     H      0.783890000000     0.437240000000     0.690940000000     0.0652927  
H120     H      0.660240000000     0.433780000000     0.726710000000     0.142435   
H121     H      0.043190000000     0.534370000000     0.934020000000     0.0407303  
H122     H      0.133610000000     0.513090000000     0.972890000000     0.0498065  
H123     H      0.963920000000     0.528780000000     0.006450000000     0.00477619 
H124     H      0.005090000000     0.503610000000     0.090830000000     0.0667386  
H125     H      0.068470000000     0.474170000000     0.906860000000     0.0508016  
H126     H      0.109810000000     0.448790000000     0.990470000000     0.0454913  
H127     H      0.029850000000     0.443000000000     0.063950000000     0.066017   
H128     H      0.907440000000     0.480510000000     0.052390000000     0.142695   
In1      In     0.912890000000     0.371190000000     0.862050000000     2.39846    
In2      In     0.161310000000     0.608950000000     0.130000000000     2.40315    
In3      In     0.398800000000     0.873050000000     0.880980000000     2.40199    
In4      In     0.654300000000     0.132870000000     0.120280000000     2.40019    
In5      In     0.412210000000     0.365620000000     0.389470000000     2.40346    
In6      In     0.656680000000     0.630830000000     0.628350000000     2.41531    
In7      In     0.893760000000     0.862080000000     0.360170000000     2.41405    
In8      In     0.149670000000     0.107090000000     0.615490000000     2.402      
N1       N      0.053230000000     0.020150000000     0.515770000000    -0.182076   
N2       N      0.998260000000     0.941750000000     0.457870000000    -0.159879   
N3       N      0.764930000000     0.719210000000     0.542680000000    -0.181534   
N4       N      0.792810000000     0.771600000000     0.450470000000    -0.159153   
N5       N      0.324030000000     0.277660000000     0.494200000000    -0.181144   
N6       N      0.242540000000     0.205170000000     0.524880000000    -0.158739   
N7       N      0.556910000000     0.549250000000     0.527220000000    -0.181251   
N8       N      0.509300000000     0.461010000000     0.479530000000    -0.159444   
N9       N      0.805120000000     0.958070000000     0.262720000000    -0.181589   
N10      N      0.734680000000     0.036390000000     0.222700000000    -0.159793   
N11      N      0.567360000000     0.234580000000     0.212950000000    -0.181946   
N12      N      0.495350000000     0.264040000000     0.294510000000    -0.159972   
N13      N      0.253140000000     0.015920000000     0.704290000000    -0.181238   
N14      N      0.297910000000     0.967960000000     0.794020000000    -0.160512   
N15      N      0.487920000000     0.779980000000     0.782000000000    -0.180136   
N16      N      0.568950000000     0.734530000000     0.716620000000    -0.159821   
N17      N      0.556620000000     0.043390000000     0.023820000000    -0.180283   
N18      N      0.502450000000     0.958550000000     0.975060000000    -0.16022    
N19      N      0.982110000000     0.757750000000     0.272560000000    -0.181607   
N20      N      0.065450000000     0.712780000000     0.209860000000    -0.159514   
N21      N      0.307070000000     0.769090000000     0.966710000000    -0.181276   
N22      N      0.262010000000     0.706750000000     0.046950000000    -0.159204   
N23      N      0.246700000000     0.523970000000     0.239600000000    -0.18252    
N24      N      0.319910000000     0.452390000000     0.287310000000    -0.160068   
N25      N      0.014540000000     0.280710000000     0.770770000000    -0.18133    
N26      N      0.052720000000     0.193770000000     0.714110000000    -0.16009    
N27      N      0.757400000000     0.220830000000     0.027840000000    -0.180346   
N28      N      0.810410000000     0.274220000000     0.944970000000    -0.159017   
N29      N      0.742430000000     0.532910000000     0.725960000000    -0.181878   
N30      N      0.823410000000     0.461600000000     0.760870000000    -0.159882   
N31      N      0.998950000000     0.468060000000     0.961100000000    -0.181797   
N32      N      0.073770000000     0.508870000000     0.036100000000    -0.159839   
O1       O      0.987980000000     0.316760000000     0.850530000000    -0.472302   
O2       O      0.938890000000     0.335340000000     0.783780000000    -0.506656   
O3       O      0.832520000000     0.353640000000     0.907580000000    -0.491192   
O4       O      0.922940000000     0.415930000000     0.939340000000    -0.48556    
O5       O      0.896580000000     0.447670000000     0.818380000000    -0.502804   
O6       O      0.988720000000     0.421500000000     0.883950000000    -0.498616   
O7       O      0.892760000000     0.292940000000     0.901320000000    -0.495656   
O8       O      0.839980000000     0.384890000000     0.805650000000    -0.492742   
O9       O      0.169790000000     0.540210000000     0.186640000000    -0.486676   
O10      O      0.238820000000     0.591590000000     0.180030000000    -0.502337   
O11      O      0.085060000000     0.558410000000     0.110920000000    -0.495881   
O12      O      0.087200000000     0.664830000000     0.135980000000    -0.491357   
O13      O      0.236930000000     0.624770000000     0.076800000000    -0.487301   
O14      O      0.137570000000     0.653340000000     0.204010000000    -0.50445    
O15      O      0.150010000000     0.561500000000     0.054180000000    -0.501543   
O16      O      0.184300000000     0.688640000000     0.097140000000    -0.501939   
O17      O      0.419670000000     0.914750000000     0.958350000000    -0.500461   
O18      O      0.479970000000     0.917640000000     0.897200000000    -0.497892   
O19      O      0.418570000000     0.840960000000     0.799340000000    -0.482515   
O20      O      0.379660000000     0.791160000000     0.910890000000    -0.482053   
O21      O      0.378480000000     0.950920000000     0.841130000000    -0.505158   
O22      O      0.328350000000     0.852710000000     0.938620000000    -0.496126   
O23      O      0.469180000000     0.816030000000     0.863100000000    -0.491307   
O24      O      0.318860000000     0.889770000000     0.834420000000    -0.497477   
O25      O      0.579340000000     0.185890000000     0.137080000000    -0.475102   
O26      O      0.643160000000     0.181640000000     0.194670000000    -0.506969   
O27      O      0.637770000000     0.089420000000     0.043220000000    -0.480426   
O28      O      0.675780000000     0.207190000000     0.074770000000    -0.50493    
O29      O      0.661470000000     0.056980000000     0.167290000000    -0.501622   
O30      O      0.734040000000     0.144780000000     0.072100000000    -0.472405   
O31      O      0.574730000000     0.086600000000     0.101670000000    -0.490591   
O32      O      0.728040000000     0.111600000000     0.173370000000    -0.490169   
O33      O      0.399240000000     0.437090000000     0.336800000000    -0.504641   
O34      O      0.332310000000     0.382870000000     0.343540000000    -0.493577   
O35      O      0.487540000000     0.313830000000     0.369760000000    -0.491644   
O36      O      0.491110000000     0.414590000000     0.403690000000    -0.492389   
O37      O      0.396800000000     0.290670000000     0.435870000000    -0.506916   
O38      O      0.429450000000     0.412910000000     0.463730000000    -0.500964   
O39      O      0.419610000000     0.315580000000     0.315840000000    -0.505448   
O40      O      0.339730000000     0.353260000000     0.446490000000    -0.472232   
O41      O      0.576160000000     0.586770000000     0.607790000000    -0.500453   
O42      O      0.638400000000     0.593340000000     0.548880000000    -0.480796   
O43      O      0.634030000000     0.668890000000     0.706320000000    -0.505883   
O44      O      0.668030000000     0.552750000000     0.670900000000    -0.485754   
O45      O      0.732630000000     0.640190000000     0.574870000000    -0.471641   
O46      O      0.730010000000     0.610880000000     0.682110000000    -0.5028     
O47      O      0.588860000000     0.692920000000     0.638530000000    -0.494083   
O48      O      0.688550000000     0.708620000000     0.596990000000    -0.505859   
O49      O      0.821100000000     0.851330000000     0.417600000000    -0.4899     
O50      O      0.865180000000     0.783730000000     0.392150000000    -0.503794   
O51      O      0.881550000000     0.938650000000     0.314990000000    -0.508458   
O52      O      0.973710000000     0.908300000000     0.376950000000    -0.496355   
O53      O      0.912120000000     0.819460000000     0.283340000000    -0.483906   
O54      O      0.915790000000     0.898460000000     0.439510000000    -0.501803   
O55      O      0.817290000000     0.881900000000     0.310280000000    -0.482226   
O56      O      0.964800000000     0.803990000000     0.348530000000    -0.501476   
O57      O      0.073980000000     0.054940000000     0.597280000000    -0.501295   
O58      O      0.131170000000     0.070170000000     0.535720000000    -0.486573   
O59      O      0.127530000000     0.139430000000     0.696640000000    -0.501072   
O60      O      0.172590000000     0.029930000000     0.655710000000    -0.50442    
O61      O      0.223840000000     0.124970000000     0.562010000000    -0.486957   
O62      O      0.228880000000     0.093480000000     0.663480000000    -0.479021   
O63      O      0.075880000000     0.161390000000     0.632440000000    -0.494885   
O64      O      0.168040000000     0.187200000000     0.579730000000    -0.497734   
O65      O      0.121950000000     0.027310000000     0.447440000000    -0.261869   
O66      O      0.813750000000     0.642900000000     0.512380000000    -0.257008   
O67      O      0.259180000000     0.347750000000     0.509540000000    -0.259564   
O68      O      0.627710000000     0.551860000000     0.460270000000    -0.258048   
O69      O      0.728220000000     0.897650000000     0.260690000000    -0.260186   
O70      O      0.489850000000     0.234850000000     0.152810000000    -0.260427   
O71      O      0.318130000000     0.086880000000     0.714580000000    -0.260552   
O72      O      0.440790000000     0.814290000000     0.706390000000    -0.26281    
O73      O      0.628860000000     0.039940000000     0.958420000000    -0.259926   
O74      O      0.928140000000     0.777380000000     0.195540000000    -0.261095   
O75      O      0.369360000000     0.699250000000     0.943260000000    -0.26092    
O76      O      0.172620000000     0.460740000000     0.244070000000    -0.262256   
O77      O      0.067720000000     0.252710000000     0.845620000000    -0.260253   
O78      O      0.820460000000     0.148920000000     0.015740000000    -0.258311   
O79      O      0.679770000000     0.462040000000     0.707250000000    -0.262245   
O80      O      0.929390000000     0.457870000000     0.028310000000    -0.262445   


