data_structure

_audit_creation_method RASPA-1.0
_audit_creation_date 2023-5-22
_audit_author_name 'Poobodin Mano'

_cell_length_a    25.7319
_cell_length_b    24.4075
_cell_length_c    24.0974
_cell_angle_alpha 90
_cell_angle_beta  90
_cell_angle_gamma 90
_cell_volume      15134.4

_symmetry_cell_setting          triclinic
_symmetry_space_group_name_Hall 'P 1'
_symmetry_space_group_name_H-M  'P 1'
_symmetry_Int_Tables_number     1

_symmetry_equiv_pos_as_xyz 'x,y,z'

loop_
_atom_site_label
_atom_site_type_symbol
_atom_site_fract_x
_atom_site_fract_y
_atom_site_fract_z
_atom_site_charge
C1       C      0.837770000000     0.314860000000     0.983950000000     0.416891   
C2       C      0.946000000000     0.449780000000     0.978910000000     0.409956   
C3       C      0.945030000000     0.329270000000     0.839930000000     0.401499   
C4       C      0.817750000000     0.443700000000     0.852060000000     0.420623   
C5       C      0.055260000000     0.726430000000     0.228880000000     0.419203   
C6       C      0.175720000000     0.596500000000     0.234660000000     0.397684   
C7       C      0.066500000000     0.596100000000     0.093420000000     0.411043   
C8       C      0.181150000000     0.722220000000     0.101950000000     0.407671   
C9       C      0.312830000000     0.821440000000     0.957340000000     0.401086   
C10      C      0.421220000000     0.953580000000     0.960000000000     0.409927   
C11      C      0.418760000000     0.832760000000     0.817120000000     0.403734   
C12      C      0.301630000000     0.961520000000     0.831510000000     0.405841   
C13      C      0.538970000000     0.210440000000     0.194400000000     0.404342   
C14      C      0.669460000000     0.092150000000     0.187910000000     0.41231    
C15      C      0.551170000000     0.098570000000     0.051470000000     0.416752   
C16      C      0.671820000000     0.222680000000     0.070730000000     0.407325   
C17      C      0.307410000000     0.452920000000     0.335500000000     0.410681   
C18      C      0.437620000000     0.338520000000     0.343430000000     0.411996   
C19      C      0.427340000000     0.450830000000     0.481270000000     0.40594    
C20      C      0.301880000000     0.334690000000     0.467880000000     0.412953   
C21      C      0.689400000000     0.580300000000     0.735850000000     0.407205   
C22      C      0.567730000000     0.573980000000     0.595760000000     0.420652   
C23      C      0.564260000000     0.701830000000     0.727480000000     0.408824   
C24      C      0.684560000000     0.696970000000     0.596700000000     0.400151   
C25      C      0.899600000000     0.838760000000     0.329840000000     0.405281   
C26      C      0.900060000000     0.949500000000     0.472970000000     0.417132   
C27      C      0.780660000000     0.969340000000     0.334920000000     0.403437   
C28      C      0.767920000000     0.842510000000     0.456610000000     0.413165   
C29      C      0.056090000000     0.185080000000     0.719070000000     0.411158   
C30      C      0.155470000000     0.210400000000     0.569230000000     0.408649   
C31      C      0.174210000000     0.065820000000     0.687900000000     0.420093   
C32      C      0.044800000000     0.076970000000     0.569380000000     0.404842   
C33      C      0.963570000000     0.069760000000     0.514850000000    -0.0124949  
C34      C      0.025000000000     0.989760000000     0.521410000000    -0.0411618  
C35      C      0.918330000000     0.031560000000     0.529200000000    -0.00985003 
C36      C      0.979080000000     0.952310000000     0.536490000000     0.0794364  
C37      C      0.991680000000     0.892190000000     0.522750000000    -0.184506   
C38      C      0.740310000000     0.778170000000     0.581810000000    -0.0123693  
C39      C      0.718090000000     0.715400000000     0.502240000000    -0.0426076  
C40      C      0.724510000000     0.827380000000     0.546310000000    -0.0101058  
C41      C      0.702020000000     0.765560000000     0.467660000000     0.0816555  
C42      C      0.704700000000     0.752850000000     0.405200000000    -0.186864   
C43      C      0.201990000000     0.232430000000     0.482180000000    -0.0119916  
C44      C      0.187430000000     0.304960000000     0.553670000000    -0.0403522  
C45      C      0.260090000000     0.245240000000     0.482060000000    -0.0101939  
C46      C      0.245940000000     0.318620000000     0.553690000000     0.077625   
C47      C      0.253980000000     0.378520000000     0.571830000000    -0.183546   
C48      C      0.445590000000     0.535050000000     0.535230000000    -0.0131553  
C49      C      0.500950000000     0.451350000000     0.547440000000    -0.0412443  
C50      C      0.494710000000     0.570040000000     0.529810000000    -0.00982557 
C51      C      0.550240000000     0.486500000000     0.541060000000     0.0789594  
C52      C      0.596490000000     0.458130000000     0.569640000000    -0.18413    
C53      C      0.695520000000     0.993970000000     0.294550000000    -0.0130094  
C54      C      0.771260000000     0.058570000000     0.287190000000    -0.0404851  
C55      C      0.683580000000     0.003070000000     0.233140000000    -0.00974205 
C56      C      0.759010000000     0.067310000000     0.225330000000     0.0780531  
C57      C      0.780720000000     0.122880000000     0.205840000000    -0.183357   
C58      C      0.482000000000     0.290350000000     0.212180000000    -0.0125742  
C59      C      0.489970000000     0.215010000000     0.282740000000    -0.0421949  
C60      C      0.490160000000     0.332880000000     0.258110000000    -0.0112701  
C61      C      0.499140000000     0.258090000000     0.328270000000     0.0801625  
C62      C      0.484860000000     0.234620000000     0.385560000000    -0.185903   
C63      C      0.214720000000     0.000140000000     0.811400000000    -0.0130629  
C64      C      0.293120000000     0.031940000000     0.758140000000    -0.0415475  
C65      C      0.185540000000     0.992150000000     0.756660000000    -0.00984077 
C66      C      0.263440000000     0.023300000000     0.703460000000     0.079415   
C67      C      0.286620000000     0.059190000000     0.657150000000    -0.18468    
C68      C      0.438790000000     0.743490000000     0.773190000000    -0.0134837  
C69      C      0.492910000000     0.826240000000     0.752160000000    -0.0407968  
C70      C      0.488030000000     0.711580000000     0.788530000000    -0.0102199  
C71      C      0.542110000000     0.794760000000     0.769100000000     0.0790808  
C72      C      0.590430000000     0.820320000000     0.741760000000    -0.184445   
C73      C      0.432630000000     0.037190000000     0.017060000000    -0.0125056  
C74      C      0.506100000000     0.970250000000     0.004960000000    -0.0414221  
C75      C      0.469200000000     0.084080000000     0.000580000000    -0.0108788  
C76      C      0.541410000000     0.017450000000     0.986250000000     0.0813332  
C77      C      0.599100000000     0.002540000000     0.993700000000    -0.185791   
C78      C      0.939440000000     0.749150000000     0.307080000000    -0.0126235  
C79      C      0.957810000000     0.831760000000     0.248260000000    -0.0414098  
C80      C      0.997730000000     0.736900000000     0.309930000000    -0.0104286  
C81      C      0.016430000000     0.819740000000     0.252170000000     0.0787034  
C82      C      0.045180000000     0.845740000000     0.202720000000    -0.184321   
C83      C      0.242550000000     0.753710000000     0.971930000000    -0.0118499  
C84      C      0.303820000000     0.776760000000     0.049140000000    -0.0412368  
C85      C      0.196460000000     0.763940000000     0.010530000000    -0.0108938  
C86      C      0.257520000000     0.787320000000     0.088250000000     0.078847   
C87      C      0.274500000000     0.778400000000     0.148870000000    -0.185048   
C88      C      0.257680000000     0.580510000000     0.286130000000    -0.0135901  
C89      C      0.185140000000     0.511780000000     0.290460000000    -0.0408085  
C90      C      0.296380000000     0.534000000000     0.275620000000    -0.0104123  
C91      C      0.224350000000     0.465400000000     0.279040000000     0.0775692  
C92      C      0.203110000000     0.410650000000     0.301210000000    -0.183536   
C93      C      0.950490000000     0.267070000000     0.759070000000    -0.0120748  
C94      C      0.031810000000     0.300690000000     0.806100000000    -0.0419574  
C95      C      0.971720000000     0.208560000000     0.761090000000    -0.0104334  
C96      C      0.052240000000     0.241440000000     0.808030000000     0.0799529  
C97      C      0.111890000000     0.240770000000     0.812400000000    -0.184982   
C98      C      0.729350000000     0.236100000000     0.989670000000    -0.0124418  
C99      C      0.731430000000     0.302290000000     0.070010000000    -0.0412246  
C100     C      0.788430000000     0.229370000000     0.994390000000    -0.0099226  
C101     C      0.790560000000     0.294240000000     0.073800000000     0.0809243  
C102     C      0.817250000000     0.342800000000     0.102890000000    -0.185395   
C103     C      0.778430000000     0.558160000000     0.767340000000    -0.0130502  
C104     C      0.701100000000     0.523980000000     0.820340000000    -0.0409967  
C105     C      0.802560000000     0.501020000000     0.769770000000    -0.00957619 
C106     C      0.725170000000     0.466270000000     0.822390000000     0.0786177  
C107     C      0.703480000000     0.434760000000     0.872720000000    -0.183534   
C108     C      0.991050000000     0.580560000000     0.031600000000    -0.0117883  
C109     C      0.064620000000     0.513440000000     0.033990000000    -0.0398249  
C110     C      0.952220000000     0.533320000000     0.035470000000    -0.0107472  
C111     C      0.025770000000     0.465670000000     0.039240000000     0.0779293  
C112     C      0.050840000000     0.413000000000     0.016210000000    -0.183629   
H1       H      0.001290000000     0.887000000000     0.478110000000     0.0809081  
H2       H      0.031440000000     0.987580000000     0.475810000000     0.0443867  
H3       H      0.966250000000     0.072890000000     0.468900000000     0.0396688  
H4       H      0.882200000000     0.047820000000     0.510030000000     0.04837    
H5       H      0.060930000000     0.974870000000     0.542190000000     0.0536033  
H6       H      0.026030000000     0.878740000000     0.547130000000     0.0630355  
H7       H      0.974920000000     0.954470000000     0.582450000000     0.0197379  
H8       H      0.955250000000     0.111330000000     0.531490000000     0.0480979  
H9       H      0.912820000000     0.032250000000     0.574980000000     0.0396605  
H10      H      0.958810000000     0.865170000000     0.534730000000     0.0810615  
H11      H      0.744060000000     0.738650000000     0.392890000000     0.0848037  
H12      H      0.759360000000     0.705460000000     0.492860000000     0.0465918  
H13      H      0.782970000000     0.772230000000     0.577590000000     0.0398908  
H14      H      0.746860000000     0.863940000000     0.559960000000     0.0467671  
H15      H      0.694010000000     0.679430000000     0.490310000000     0.0536375  
H16      H      0.676880000000     0.719520000000     0.395030000000     0.0635096  
H17      H      0.660270000000     0.773170000000     0.477170000000     0.0180211  
H18      H      0.731850000000     0.787260000000     0.626100000000     0.0480415  
H19      H      0.682660000000     0.835960000000     0.553970000000     0.0374539  
H20      H      0.693060000000     0.789310000000     0.380560000000     0.0844362  
H21      H      0.238150000000     0.407390000000     0.540440000000     0.0793323  
H22      H      0.167550000000     0.332390000000     0.523500000000     0.0431711  
H23      H      0.183180000000     0.257140000000     0.449010000000     0.0379482  
H24      H      0.275830000000     0.235680000000     0.440210000000     0.0469353  
H25      H      0.170620000000     0.312980000000     0.595420000000     0.0513888  
H26      H      0.233480000000     0.386240000000     0.611660000000     0.0616479  
H27      H      0.263890000000     0.292530000000     0.586390000000     0.017854   
H28      H      0.196070000000     0.188400000000     0.472180000000     0.0454534  
H29      H      0.279480000000     0.217330000000     0.512110000000     0.0375992  
H30      H      0.295760000000     0.386820000000     0.579740000000     0.0817121  
H31      H      0.590260000000     0.455030000000     0.615170000000     0.0800894  
H32      H      0.491690000000     0.447620000000     0.592390000000     0.0440212  
H33      H      0.432910000000     0.535890000000     0.579340000000     0.0391445  
H34      H      0.485990000000     0.611890000000     0.545410000000     0.0465921  
H35      H      0.508270000000     0.409410000000     0.531150000000     0.0515384  
H36      H      0.601100000000     0.415880000000     0.553170000000     0.0617355  
H37      H      0.559330000000     0.487360000000     0.495880000000     0.0185607  
H38      H      0.414140000000     0.553460000000     0.509670000000     0.0465043  
H39      H      0.504290000000     0.573730000000     0.484950000000     0.0383385  
H40      H      0.633270000000     0.480060000000     0.560290000000     0.0820582  
H41      H      0.761380000000     0.157410000000     0.227660000000     0.081485   
H42      H      0.752020000000     0.091530000000     0.311600000000     0.0452007  
H43      H      0.671340000000     0.022790000000     0.319260000000     0.0396331  
H44      H      0.641160000000     0.997490000000     0.226570000000     0.0470254  
H45      H      0.813890000000     0.061960000000     0.294090000000     0.0535359  
H46      H      0.822970000000     0.125240000000     0.215060000000     0.0615371  
H47      H      0.781090000000     0.035280000000     0.202350000000     0.0181769  
H48      H      0.684110000000     0.951550000000     0.306140000000     0.0459124  
H49      H      0.703950000000     0.970840000000     0.208810000000     0.0370171  
H50      H      0.776700000000     0.127200000000     0.160160000000     0.0798459  
H51      H      0.443240000000     0.222630000000     0.387330000000     0.084512   
H52      H      0.447820000000     0.204890000000     0.281530000000     0.0455524  
H53      H      0.439490000000     0.284590000000     0.206300000000     0.0389611  
H54      H      0.469300000000     0.371080000000     0.246490000000     0.0464212  
H55      H      0.511550000000     0.176830000000     0.292940000000     0.0527682  
H56      H      0.508390000000     0.197350000000     0.393910000000     0.0626441  
H57      H      0.541810000000     0.265680000000     0.329220000000     0.0174857  
H58      H      0.498300000000     0.306440000000     0.172700000000     0.0475654  
H59      H      0.532330000000     0.342690000000     0.260190000000     0.0381479  
H60      H      0.494250000000     0.264530000000     0.418830000000     0.0830854  
H61      H      0.284450000000     0.103380000000     0.667970000000     0.0805704  
H62      H      0.288510000000     0.075410000000     0.771150000000     0.0444591  
H63      H      0.205410000000     0.041630000000     0.827680000000     0.038837   
H64      H      0.143310000000     0.998060000000     0.764260000000     0.046838   
H65      H      0.335290000000     0.024270000000     0.751530000000     0.053326   
H66      H      0.328270000000     0.048700000000     0.651180000000     0.0625148  
H67      H      0.270560000000     0.980010000000     0.690960000000     0.0182778  
H68      H      0.200730000000     0.969460000000     0.842060000000     0.047008   
H69      H      0.191240000000     0.949060000000     0.742930000000     0.0381977  
H70      H      0.266740000000     0.051060000000     0.617080000000     0.0814851  
H71      H      0.587590000000     0.819150000000     0.695760000000     0.0841862  
H72      H      0.487200000000     0.821550000000     0.706630000000     0.0448028  
H73      H      0.430050000000     0.735660000000     0.728700000000     0.0393889  
H74      H      0.481710000000     0.667540000000     0.778970000000     0.0472008  
H75      H      0.497730000000     0.870660000000     0.761130000000     0.0540685  
H76      H      0.593900000000     0.863970000000     0.754330000000     0.0630591  
H77      H      0.546750000000     0.801060000000     0.814620000000     0.0191638  
H78      H      0.405610000000     0.727990000000     0.798210000000     0.0469414  
H79      H      0.494010000000     0.715210000000     0.834100000000     0.0380595  
H80      H      0.626310000000     0.799410000000     0.756190000000     0.0828999  
H81      H      0.607690000000     0.990180000000     0.037120000000     0.084133   
H82      H      0.511040000000     0.964250000000     0.050430000000     0.0467886  
H83      H      0.432500000000     0.034040000000     0.063090000000     0.0389731  
H84      H      0.456530000000     0.122260000000     0.021760000000     0.0464098  
H85      H      0.517840000000     0.931640000000     0.983870000000     0.0543564  
H86      H      0.608910000000     0.967220000000     0.966560000000     0.0630581  
H87      H      0.535270000000     0.022090000000     0.940720000000     0.018815   
H88      H      0.392460000000     0.047200000000     0.003440000000     0.046158   
H89      H      0.465390000000     0.090830000000     0.955110000000     0.0379633  
H90      H      0.624290000000     0.037250000000     0.980870000000     0.0825476  
H91      H      0.031890000000     0.827900000000     0.162740000000     0.0813413  
H92      H      0.942360000000     0.812410000000     0.209850000000     0.0449547  
H93      H      0.922640000000     0.725170000000     0.272180000000     0.0389046  
H94      H      0.003180000000     0.691950000000     0.314400000000     0.0457099  
H95      H      0.951340000000     0.876710000000     0.245020000000     0.0519275  
H96      H      0.037210000000     0.890470000000     0.201410000000     0.0619081  
H97      H      0.030590000000     0.841330000000     0.289980000000     0.0169539  
H98      H      0.920610000000     0.735010000000     0.346050000000     0.0461438  
H99      H      0.013550000000     0.756590000000     0.347980000000     0.0366476  
H100     H      0.087870000000     0.841070000000     0.207590000000     0.0798433  
H101     H      0.284010000000     0.734680000000     0.156740000000     0.0850293  
H102     H      0.316470000000     0.733440000000     0.054110000000     0.045081   
H103     H      0.252190000000     0.709310000000     0.973360000000     0.0400657  
H104     H      0.163610000000     0.737560000000     0.997010000000     0.0478972  
H105     H      0.337030000000     0.803520000000     0.060930000000     0.0534958  
H106     H      0.309790000000     0.803060000000     0.157960000000     0.0629755  
H107     H      0.247700000000     0.831570000000     0.084090000000     0.0186132  
H108     H      0.231210000000     0.764020000000     0.928650000000     0.048874   
H109     H      0.183970000000     0.807260000000     0.005330000000     0.0392399  
H110     H      0.243960000000     0.792970000000     0.177900000000     0.083441   
H111     H      0.198250000000     0.411860000000     0.347010000000     0.0798567  
H112     H      0.180010000000     0.515850000000     0.336120000000     0.0442848  
H113     H      0.257100000000     0.589190000000     0.331430000000     0.0393298  
H114     H      0.334890000000     0.546180000000     0.292450000000     0.0479861  
H115     H      0.146750000000     0.500980000000     0.272250000000     0.053128   
H116     H      0.164390000000     0.402230000000     0.282640000000     0.0616699  
H117     H      0.226630000000     0.461140000000     0.233080000000     0.0188219  
H118     H      0.271420000000     0.618070000000     0.264560000000     0.0463321  
H119     H      0.300800000000     0.529070000000     0.229980000000     0.037994   
H120     H      0.228830000000     0.376250000000     0.288760000000     0.081286   
H121     H      0.130130000000     0.262200000000     0.776690000000     0.0830997  
H122     H      0.047250000000     0.320940000000     0.768160000000     0.0458306  
H123     H      0.960670000000     0.285070000000     0.718090000000     0.0402075  
H124     H      0.955230000000     0.184860000000     0.725870000000     0.0485198  
H125     H      0.046330000000     0.323810000000     0.842740000000     0.052249   
H126     H      0.124170000000     0.262360000000     0.850820000000     0.0615366  
H127     H      0.037400000000     0.223400000000     0.847430000000     0.0177066  
H128     H      0.907410000000     0.265800000000     0.762220000000     0.0478683  
H129     H      0.957840000000     0.189060000000     0.800090000000     0.0388584  
H130     H      0.126400000000     0.198030000000     0.815600000000     0.0803534  
H131     H      0.805070000000     0.382610000000     0.084750000000     0.0825758  
H132     H      0.723410000000     0.338680000000     0.043560000000     0.0461328  
H133     H      0.721190000000     0.268400000000     0.958290000000     0.0386593  
H134     H      0.804700000000     0.218750000000     0.953030000000     0.046157   
H135     H      0.715190000000     0.310480000000     0.111970000000     0.0535857  
H136     H      0.806010000000     0.343320000000     0.147400000000     0.0622493  
H137     H      0.796890000000     0.258050000000     0.101190000000     0.0171009  
H138     H      0.712070000000     0.197150000000     0.974510000000     0.0456609  
H139     H      0.796590000000     0.194550000000     0.022880000000     0.0355246  
H140     H      0.860170000000     0.338390000000     0.100860000000     0.0762602  
H141     H      0.716760000000     0.453420000000     0.912320000000     0.0804326  
H142     H      0.711960000000     0.546340000000     0.858870000000     0.0445638  
H143     H      0.793750000000     0.582460000000     0.802780000000     0.0394909  
H144     H      0.845550000000     0.505410000000     0.769530000000     0.0465511  
H145     H      0.657980000000     0.520750000000     0.819170000000     0.0524095  
H146     H      0.660310000000     0.435870000000     0.872280000000     0.0621988  
H147     H      0.711120000000     0.444400000000     0.784710000000     0.0181326  
H148     H      0.790840000000     0.578690000000     0.728350000000     0.0465852  
H149     H      0.791420000000     0.478620000000     0.731370000000     0.0377982  
H150     H      0.714550000000     0.390840000000     0.870600000000     0.0811973  
H151     H      0.055090000000     0.415170000000     0.970370000000     0.0830632  
H152     H      0.074100000000     0.519440000000     0.989340000000     0.0454959  
H153     H      0.996730000000     0.590670000000     0.987010000000     0.04033    
H154     H      0.916040000000     0.545410000000     0.013450000000     0.0462266  
H155     H      0.101270000000     0.502910000000     0.056030000000     0.0525768  
H156     H      0.090170000000     0.407170000000     0.034350000000     0.0612638  
H157     H      0.019460000000     0.459010000000     0.084450000000     0.0183937  
H158     H      0.974390000000     0.617270000000     0.052330000000     0.0460248  
H159     H      0.942000000000     0.527510000000     0.079930000000     0.0371311  
H160     H      0.027940000000     0.376410000000     0.028500000000     0.082816   
In1      In     0.886130000000     0.385120000000     0.913700000000     2.40418    
In2      In     0.117820000000     0.660440000000     0.166510000000     2.38384    
In3      In     0.362900000000     0.892670000000     0.890520000000     2.40006    
In4      In     0.606040000000     0.157000000000     0.126990000000     2.408      
In5      In     0.368700000000     0.395420000000     0.406540000000     2.39366    
In6      In     0.626030000000     0.635770000000     0.665530000000     2.398      
In7      In     0.838260000000     0.899950000000     0.397050000000     2.40367    
In8      In     0.108530000000     0.135560000000     0.635610000000     2.40605    
N1       N      0.930860000000     0.975160000000     0.511520000000    -0.179559   
N2       N      0.012510000000     0.046820000000     0.536390000000    -0.163573   
N3       N      0.732090000000     0.813900000000     0.487180000000    -0.17916    
N4       N      0.713580000000     0.728570000000     0.561760000000    -0.162359   
N5       N      0.269390000000     0.302580000000     0.499380000000    -0.179016   
N6       N      0.179770000000     0.247850000000     0.536080000000    -0.166038   
N7       N      0.538850000000     0.543780000000     0.558770000000    -0.179443   
N8       N      0.456950000000     0.478140000000     0.519360000000    -0.164908   
N9       N      0.702610000000     0.057380000000     0.215370000000    -0.179021   
N10      N      0.750710000000     0.005320000000     0.305630000000    -0.16414    
N11      N      0.473350000000     0.310370000000     0.312090000000    -0.179409   
N12      N      0.505240000000     0.237600000000     0.228480000000    -0.163936   
N13      N      0.206730000000     0.029450000000     0.714010000000    -0.180309   
N14      N      0.271060000000     0.996440000000     0.801620000000    -0.164666   
N15      N      0.533520000000     0.735090000000     0.759600000000    -0.1791     
N16      N      0.447910000000     0.802470000000     0.781110000000    -0.164414   
N17      N      0.523370000000     0.068740000000     0.013460000000    -0.18008    
N18      N      0.451630000000     0.985110000000     0.993660000000    -0.164088   
N19      N      0.024460000000     0.759850000000     0.260910000000    -0.181504   
N20      N      0.930970000000     0.807870000000     0.296450000000    -0.164908   
N21      N      0.211660000000     0.755080000000     0.069050000000    -0.17798    
N22      N      0.287640000000     0.785320000000     0.991240000000    -0.162605   
N23      N      0.276740000000     0.482140000000     0.299300000000    -0.178502   
N24      N      0.205180000000     0.563970000000     0.268530000000    -0.162958   
N25      N      0.029060000000     0.209930000000     0.761260000000    -0.178508   
N26      N      0.974600000000     0.300300000000     0.803140000000    -0.163439   
N27      N      0.810430000000     0.280140000000     0.017740000000    -0.181761   
N28      N      0.708020000000     0.253600000000     0.043690000000    -0.164662   
N29      N      0.782930000000     0.470450000000     0.818380000000    -0.180104   
N30      N      0.721600000000     0.554280000000     0.772370000000    -0.165807   
N31      N      0.974990000000     0.481800000000     0.014180000000    -0.177918   
N32      N      0.041240000000     0.564150000000     0.055460000000    -0.164184   
O1       O      0.804470000000     0.413320000000     0.891750000000    -0.521924   
O2       O      0.866310000000     0.446130000000     0.844680000000    -0.509209   
O3       O      0.957150000000     0.400790000000     0.967490000000    -0.503623   
O4       O      0.847540000000     0.363820000000     0.996250000000    -0.516501   
O5       O      0.896040000000     0.328270000000     0.839280000000    -0.499569   
O6       O      0.853150000000     0.301060000000     0.936340000000    -0.507842   
O7       O      0.904520000000     0.466550000000     0.956440000000    -0.505097   
O8       O      0.964470000000     0.358740000000     0.877610000000    -0.495129   
O9       O      0.187940000000     0.716210000000     0.153370000000    -0.492878   
O10      O      0.142690000000     0.696100000000     0.083080000000    -0.502631   
O11      O      0.129910000000     0.584340000000     0.220590000000    -0.494642   
O12      O      0.062020000000     0.676350000000     0.239400000000    -0.509305   
O13      O      0.046640000000     0.638870000000     0.113930000000    -0.504445   
O14      O      0.079560000000     0.742570000000     0.186780000000    -0.518969   
O15      O      0.192220000000     0.641020000000     0.214740000000    -0.491844   
O16      O      0.111930000000     0.585620000000     0.110110000000    -0.501458   
O17      O      0.284390000000     0.932470000000     0.870660000000    -0.500395   
O18      O      0.349450000000     0.955730000000     0.822120000000    -0.507823   
O19      O      0.437450000000     0.909880000000     0.937990000000    -0.502453   
O20      O      0.351910000000     0.848590000000     0.973060000000    -0.503994   
O21      O      0.428400000000     0.882290000000     0.827560000000    -0.497288   
O22      O      0.298860000000     0.830310000000     0.907870000000    -0.48938    
O23      O      0.375020000000     0.966200000000     0.947750000000    -0.507107   
O24      O      0.380680000000     0.813270000000     0.843390000000    -0.50327    
O25      O      0.656740000000     0.233320000000     0.119380000000    -0.49939    
O26      O      0.652460000000     0.179890000000     0.049920000000    -0.510479   
O27      O      0.682490000000     0.138880000000     0.170780000000    -0.515182   
O28      O      0.559470000000     0.165230000000     0.207360000000    -0.509238   
O29      O      0.534240000000     0.142360000000     0.072690000000    -0.508445   
O30      O      0.552190000000     0.228620000000     0.147470000000    -0.500157   
O31      O      0.623210000000     0.079170000000     0.176300000000    -0.498559   
O32      O      0.595350000000     0.084700000000     0.068740000000    -0.509989   
O33      O      0.322000000000     0.317860000000     0.423220000000    -0.499305   
O34      O      0.315010000000     0.382760000000     0.480870000000    -0.514915   
O35      O      0.420470000000     0.385030000000     0.329710000000    -0.50691    
O36      O      0.351560000000     0.469520000000     0.351110000000    -0.495011   
O37      O      0.388190000000     0.471880000000     0.458040000000    -0.497373   
O38      O      0.294590000000     0.407350000000     0.355840000000    -0.514478   
O39      O      0.419190000000     0.320800000000     0.388300000000    -0.501828   
O40      O      0.436890000000     0.402310000000     0.466680000000    -0.51145    
O41      O      0.660720000000     0.654620000000     0.580600000000    -0.501763   
O42      O      0.679070000000     0.708160000000     0.647520000000    -0.485576   
O43      O      0.606950000000     0.555670000000     0.621080000000    -0.516322   
O44      O      0.640690000000     0.580650000000     0.741010000000    -0.506353   
O45      O      0.601680000000     0.719100000000     0.698910000000    -0.504206   
O46      O      0.706040000000     0.606740000000     0.694710000000    -0.509756   
O47      O      0.557660000000     0.623510000000     0.606490000000    -0.508372   
O48      O      0.557350000000     0.650760000000     0.724110000000    -0.501003   
O49      O      0.792890000000     0.882570000000     0.476310000000    -0.508862   
O50      O      0.779010000000     0.831400000000     0.406940000000    -0.500702   
O51      O      0.909490000000     0.902660000000     0.453460000000    -0.51703    
O52      O      0.877560000000     0.819600000000     0.372320000000    -0.502449   
O53      O      0.763430000000     0.924320000000     0.352700000000    -0.507992   
O54      O      0.890630000000     0.888820000000     0.320970000000    -0.509477   
O55      O      0.859390000000     0.971290000000     0.453800000000    -0.50126    
O56      O      0.827440000000     0.978880000000     0.347260000000    -0.496189   
O57      O      0.035910000000     0.126390000000     0.581760000000    -0.495552   
O58      O      0.085750000000     0.057420000000     0.590230000000    -0.506324   
O59      O      0.136830000000     0.222430000000     0.615990000000    -0.5076     
O60      O      0.104930000000     0.185650000000     0.715310000000    -0.50864    
O61      O      0.125910000000     0.066690000000     0.696750000000    -0.509245   
O62      O      0.033710000000     0.159600000000     0.680210000000    -0.499113   
O63      O      0.150410000000     0.160810000000     0.555820000000    -0.509077   
O64      O      0.189330000000     0.100890000000     0.653100000000    -0.516881   


