data_structure

_audit_creation_method RASPA-1.0
_audit_creation_date 2023-5-22
_audit_author_name 'Poobodin Mano'

_cell_length_a    24.3565
_cell_length_b    24.4626
_cell_length_c    23.9682
_cell_angle_alpha 90
_cell_angle_beta  90
_cell_angle_gamma 90
_cell_volume      14280.8

_symmetry_cell_setting          triclinic
_symmetry_space_group_name_Hall 'P 1'
_symmetry_space_group_name_H-M  'P 1'
_symmetry_Int_Tables_number     1

_symmetry_equiv_pos_as_xyz 'x,y,z'

loop_
_atom_site_label
_atom_site_type_symbol
_atom_site_fract_x
_atom_site_fract_y
_atom_site_fract_z
_atom_site_charge
C1       C      0.966810000000     0.482290000000     0.975560000000     0.389166   
C2       C      0.852460000000     0.486760000000     0.856600000000     0.414876   
C3       C      0.941870000000     0.321070000000     0.877730000000     0.410548   
C4       C      0.819400000000     0.364180000000     0.990870000000     0.411264   
C5       C      0.116140000000     0.604470000000     0.090570000000     0.410736   
C6       C      0.248900000000     0.601120000000     0.202680000000     0.406522   
C7       C      0.253750000000     0.728440000000     0.073810000000     0.407814   
C8       C      0.128920000000     0.742870000000     0.207110000000     0.419033   
C9       C      0.497010000000     0.964960000000     0.942600000000     0.399715   
C10      C      0.364030000000     0.962650000000     0.833540000000     0.41126    
C11      C      0.508790000000     0.852610000000     0.793300000000     0.415883   
C12      C      0.396060000000     0.812920000000     0.931400000000     0.409463   
C13      C      0.696760000000     0.218550000000     0.103360000000     0.406522   
C14      C      0.560980000000     0.092060000000     0.109060000000     0.408412   
C15      C      0.704740000000     0.094280000000     0.221450000000     0.409767   
C16      C      0.566720000000     0.215000000000     0.240960000000     0.403801   
C17      C      0.300300000000     0.466950000000     0.366360000000     0.411984   
C18      C      0.271530000000     0.337850000000     0.487320000000     0.406359   
C19      C      0.409560000000     0.325260000000     0.353600000000     0.413972   
C20      C      0.422720000000     0.427010000000     0.500180000000     0.411347   
C21      C      0.714660000000     0.562570000000     0.706070000000     0.401505   
C22      C      0.622140000000     0.716190000000     0.664120000000     0.404724   
C23      C      0.714470000000     0.643730000000     0.538840000000     0.408716   
C24      C      0.577880000000     0.538020000000     0.610630000000     0.415328   
C25      C      0.936640000000     0.943860000000     0.460140000000     0.413818   
C26      C      0.807880000000     0.939620000000     0.337160000000     0.411757   
C27      C      0.960230000000     0.829260000000     0.321510000000     0.405649   
C28      C      0.826380000000     0.794400000000     0.434330000000     0.410203   
C29      C      0.196230000000     0.053110000000     0.720340000000     0.413961   
C30      C      0.047590000000     0.165920000000     0.752970000000     0.410854   
C31      C      0.150130000000     0.200480000000     0.616350000000     0.414518   
C32      C      0.062310000000     0.038580000000     0.616030000000     0.41374    
C33      C      0.016640000000     0.002010000000     0.483420000000    -0.0116576  
C34      C      0.941380000000     0.986720000000     0.553670000000    -0.00558196 
C35      C      0.059180000000     0.986990000000     0.527990000000    -0.0103357  
C36      C      0.984810000000     0.970820000000     0.597080000000    -0.0186542  
C37      C      0.820920000000     0.722190000000     0.505570000000    -0.00802716 
C38      C      0.739210000000     0.743230000000     0.442450000000    -0.00514784 
C39      C      0.806140000000     0.661660000000     0.501210000000    -0.0125096  
C40      C      0.726860000000     0.681670000000     0.440920000000    -0.0212355  
C41      C      0.226670000000     0.327730000000     0.578950000000    -0.010779   
C42      C      0.179130000000     0.296550000000     0.493540000000    -0.00513459 
C43      C      0.215950000000     0.274130000000     0.608780000000    -0.0090825  
C44      C      0.158730000000     0.244000000000     0.522930000000    -0.0184397  
C45      C      0.554760000000     0.445030000000     0.578000000000    -0.00676902 
C46      C      0.484500000000     0.501040000000     0.625360000000    -0.00335203 
C47      C      0.517790000000     0.434740000000     0.528060000000    -0.0105338  
C48      C      0.441870000000     0.490200000000     0.579060000000    -0.0185265  
C49      C      0.769090000000     0.015920000000     0.221080000000    -0.00929226 
C50      C      0.751520000000     0.068860000000     0.309260000000    -0.00418324 
C51      C      0.756180000000     0.962650000000     0.252200000000    -0.0126563  
C52      C      0.736310000000     0.015420000000     0.338640000000    -0.0200188  
C53      C      0.445830000000     0.235150000000     0.323710000000    -0.00925321 
C54      C      0.468270000000     0.320060000000     0.269470000000    -0.00496766 
C55      C      0.506790000000     0.219490000000     0.324310000000    -0.0122214  
C56      C      0.529430000000     0.305610000000     0.272030000000    -0.0176697  
C57      C      0.267680000000     0.995300000000     0.834640000000    -0.00955355 
C58      C      0.334680000000     0.031470000000     0.764020000000    -0.00422776 
C59      C      0.226670000000     0.983310000000     0.787580000000    -0.0128099  
C60      C      0.294320000000     0.016770000000     0.717400000000    -0.0192902  
C61      C      0.635880000000     0.798080000000     0.723330000000    -0.00924603 
C62      C      0.560780000000     0.796310000000     0.654430000000    -0.00597841 
C63      C      0.596980000000     0.812390000000     0.770940000000    -0.00983538 
C64      C      0.517670000000     0.813840000000     0.698050000000    -0.0182088  
C65      C      0.556010000000     0.978490000000     0.025600000000    -0.00996742 
C66      C      0.511750000000     0.059030000000     0.977700000000    -0.00604798 
C67      C      0.533620000000     0.999130000000     0.081620000000    -0.0125211  
C68      C      0.488520000000     0.077200000000     0.034180000000    -0.0192806  
C69      C      0.028340000000     0.755680000000     0.308000000000    -0.0105353  
C70      C      0.010960000000     0.824870000000     0.231820000000    -0.00590009 
C71      C      0.090050000000     0.763120000000     0.299380000000    -0.011055   
C72      C      0.073370000000     0.830170000000     0.223650000000    -0.0199953  
C73      C      0.273280000000     0.765560000000     0.979680000000    -0.0102952  
C74      C      0.342070000000     0.775930000000     0.058100000000    -0.00448315 
C75      C      0.320130000000     0.747460000000     0.940860000000    -0.0127964  
C76      C      0.386730000000     0.755160000000     0.018570000000    -0.0201472  
C77      C      0.263610000000     0.506190000000     0.233920000000    -0.010434   
C78      C      0.312730000000     0.583510000000     0.281130000000    -0.00579844 
C79      C      0.237760000000     0.489870000000     0.289710000000    -0.011818   
C80      C      0.287030000000     0.566200000000     0.336940000000    -0.0188074  
C81      C      0.957650000000     0.206860000000     0.775850000000    -0.0080776  
C82      C      0.026190000000     0.191590000000     0.850510000000    -0.0052799  
C83      C      0.948630000000     0.265660000000     0.794090000000    -0.0118903  
C84      C      0.014210000000     0.248310000000     0.876620000000    -0.0195569  
C85      C      0.785720000000     0.265510000000     0.090130000000    -0.0106419  
C86      C      0.713560000000     0.267590000000     0.014630000000    -0.00661564 
C87      C      0.794110000000     0.327070000000     0.082720000000    -0.0119728  
C88      C      0.722140000000     0.329530000000     0.009350000000    -0.0186679  
C89      C      0.731680000000     0.534430000000     0.803900000000    -0.0122908  
C90      C      0.799080000000     0.510690000000     0.727360000000    -0.00503651 
C91      C      0.779870000000     0.554610000000     0.839730000000    -0.00926259 
C92      C      0.845080000000     0.534690000000     0.763170000000    -0.0185256  
C93      C      0.097890000000     0.538230000000     0.014820000000    -0.00855372 
C94      C      0.029550000000     0.551840000000     0.092330000000    -0.00371824 
C95      C      0.051100000000     0.538600000000     0.972150000000    -0.0128843  
C96      C      0.983130000000     0.553380000000     0.049300000000    -0.0199835  
H1       H      0.067400000000     0.942350000000     0.525030000000     0.0441159  
H2       H      0.032190000000     0.989320000000     0.441770000000     0.0549676  
H3       H      0.992050000000     0.926220000000     0.591510000000     0.0498813  
H4       H      0.902740000000     0.963750000000     0.561510000000     0.0704056  
H5       H      0.098250000000     0.008610000000     0.518630000000     0.0592895  
H6       H      0.011840000000     0.047220000000     0.483150000000     0.0597427  
H7       H      0.932270000000     0.031050000000     0.558190000000     0.0659269  
H8       H      0.019660000000     0.927120000000     0.706020000000     0.150832   
H9       H      0.827610000000     0.644220000000     0.464300000000     0.0483275  
H10      H      0.866380000000     0.726010000000     0.507490000000     0.0564541  
H11      H      0.751800000000     0.664590000000     0.406120000000     0.0531315  
H12      H      0.729300000000     0.761490000000     0.401150000000     0.0640471  
H13      H      0.821440000000     0.639520000000     0.538630000000     0.0611266  
H14      H      0.803930000000     0.738550000000     0.545260000000     0.0510938  
H15      H      0.712210000000     0.762840000000     0.474050000000     0.0567935  
H16      H      0.667000000000     0.582250000000     0.406500000000     0.155769   
H17      H      0.253970000000     0.248960000000     0.607140000000     0.0627539  
H18      H      0.264930000000     0.346270000000     0.595770000000     0.0704044  
H19      H      0.180560000000     0.208900000000     0.503490000000     0.0568887  
H20      H      0.184580000000     0.287940000000     0.448290000000     0.0609483  
H21      H      0.207930000000     0.283380000000     0.653520000000     0.0607266  
H22      H      0.192150000000     0.356130000000     0.588140000000     0.0540324  
H23      H      0.147310000000     0.329020000000     0.497210000000     0.0578939  
H24      H      0.092610000000     0.160210000000     0.460690000000     0.152998   
H25      H      0.532040000000     0.460910000000     0.492970000000     0.0573495  
H26      H      0.598430000000     0.443220000000     0.564590000000     0.0566983  
H27      H      0.436390000000     0.528830000000     0.555240000000     0.0646433  
H28      H      0.476080000000     0.541550000000     0.644650000000     0.061815   
H29      H      0.523570000000     0.391550000000     0.514680000000     0.0581964  
H30      H      0.547950000000     0.411690000000     0.608820000000     0.0501022  
H31      H      0.480120000000     0.469530000000     0.658590000000     0.0574113  
H32      H      0.330660000000     0.542870000000     0.579140000000     0.161614   
H33      H      0.711860000000     0.953280000000     0.246360000000     0.0511834  
H34      H      0.756880000000     0.011600000000     0.176610000000     0.0569902  
H35      H      0.691940000000     0.008570000000     0.329920000000     0.0538046  
H36      H      0.727780000000     0.103390000000     0.327390000000     0.0654087  
H37      H      0.780090000000     0.928780000000     0.233090000000     0.0596259  
H38      H      0.814240000000     0.022530000000     0.222470000000     0.0502935  
H39      H      0.795910000000     0.077060000000     0.316220000000     0.0573716  
H40      H      0.694460000000     0.949210000000     0.431830000000     0.155366   
H41      H      0.524910000000     0.234470000000     0.364060000000     0.0520222  
H42      H      0.425920000000     0.219670000000     0.362340000000     0.0565614  
H43      H      0.546540000000     0.325120000000     0.310180000000     0.0577649  
H44      H      0.463380000000     0.365250000000     0.268510000000     0.0635207  
H45      H      0.510530000000     0.174200000000     0.323910000000     0.0578749  
H46      H      0.426160000000     0.214520000000     0.287520000000     0.0491172  
H47      H      0.450660000000     0.303170000000     0.230280000000     0.0591433  
H48      H      0.649270000000     0.291830000000     0.204570000000     0.116244   
H49      H      0.232370000000     0.940160000000     0.774160000000     0.048183   
H50      H      0.262120000000     0.964760000000     0.868520000000     0.0558542  
H51      H      0.302700000000     0.973300000000     0.706590000000     0.0570336  
H52      H      0.377600000000     0.027930000000     0.748610000000     0.0735749  
H53      H      0.184320000000     0.987260000000     0.804380000000     0.0586979  
H54      H      0.258100000000     0.036350000000     0.852040000000     0.0524025  
H55      H      0.327610000000     0.074710000000     0.776450000000     0.0609859  
H56      H      0.266160000000     0.000390000000     0.599100000000     0.15324    
H57      H      0.591870000000     0.775510000000     0.797610000000     0.049251   
H58      H      0.671820000000     0.775400000000     0.740140000000     0.054752   
H59      H      0.490550000000     0.778090000000     0.705970000000     0.0551175  
H60      H      0.540420000000     0.771500000000     0.621490000000     0.0659845  
H61      H      0.617020000000     0.844020000000     0.797390000000     0.0572942  
H62      H      0.651240000000     0.836870000000     0.704750000000     0.0505625  
H63      H      0.578010000000     0.833360000000     0.633920000000     0.0595701  
H64      H      0.398270000000     0.823190000000     0.666860000000     0.154605   
H65      H      0.493020000000     0.979560000000     0.088970000000     0.0542255  
H66      H      0.558000000000     0.933100000000     0.026400000000     0.0669853  
H67      H      0.449150000000     0.054670000000     0.039570000000     0.051952   
H68      H      0.483080000000     0.070830000000     0.943660000000     0.0666713  
H69      H      0.561520000000     0.985830000000     0.115710000000     0.0596793  
H70      H      0.598560000000     0.994210000000     0.020580000000     0.0502351  
H71      H      0.551400000000     0.080470000000     0.970540000000     0.0596475  
H72      H      0.424520000000     0.146130000000     0.111230000000     0.150925   
H73      H      0.104310000000     0.796640000000     0.327220000000     0.0460935  
H74      H      0.020500000000     0.746440000000     0.352710000000     0.0541608  
H75      H      0.087000000000     0.862700000000     0.253010000000     0.0508631  
H76      H      0.990900000000     0.864850000000     0.223330000000     0.0644412  
H77      H      0.111570000000     0.725170000000     0.312500000000     0.0554877  
H78      H      0.014660000000     0.719870000000     0.283030000000     0.0502404  
H79      H      0.994900000000     0.794760000000     0.201130000000     0.0578189  
H80      H      0.171120000000     0.883150000000     0.174780000000     0.151746   
H81      H      0.322960000000     0.702090000000     0.942330000000     0.0467368  
H82      H      0.234980000000     0.743960000000     0.967420000000     0.0570541  
H83      H      0.385310000000     0.709730000000     0.020990000000     0.0521749  
H84      H      0.351450000000     0.762860000000     0.101500000000     0.0654994  
H85      H      0.310100000000     0.759400000000     0.897280000000     0.0554887  
H86      H      0.266480000000     0.810110000000     0.973530000000     0.0516751  
H87      H      0.341890000000     0.821390000000     0.057090000000     0.0581406  
H88      H      0.498260000000     0.724990000000     0.981520000000     0.150715   
H89      H      0.197940000000     0.511720000000     0.294110000000     0.0471841  
H90      H      0.235320000000     0.495160000000     0.199310000000     0.055872   
H91      H      0.247070000000     0.588130000000     0.339690000000     0.0515022  
H92      H      0.319340000000     0.628490000000     0.280370000000     0.0678526  
H93      H      0.228890000000     0.445310000000     0.289200000000     0.0573526  
H94      H      0.302180000000     0.482460000000     0.228410000000     0.0503782  
H95      H      0.353380000000     0.563220000000     0.276920000000     0.0605592  
H96      H      0.264170000000     0.577830000000     0.457570000000     0.150687   
H97      H      0.973410000000     0.292830000000     0.766670000000     0.0592954  
H98      H      0.949580000000     0.203470000000     0.730320000000     0.0655304  
H99      H      0.050190000000     0.274930000000     0.867830000000     0.0546354  
H100     H      0.069770000000     0.180610000000     0.858730000000     0.0623904  
H101     H      0.904700000000     0.275800000000     0.786620000000     0.0655341  
H102     H      0.927450000000     0.180510000000     0.797990000000     0.0565085  
H103     H      0.000220000000     0.160230000000     0.871380000000     0.0601746  
H104     H      0.078840000000     0.291740000000     0.973800000000     0.154719   
H105     H      0.766400000000     0.348640000000     0.112340000000     0.0517363  
H106     H      0.793130000000     0.254550000000     0.134510000000     0.0576541  
H107     H      0.694550000000     0.348670000000     0.040810000000     0.0561309  
H108     H      0.669960000000     0.257300000000     0.005680000000     0.0721668  
H109     H      0.836970000000     0.337690000000     0.094340000000     0.0651302  
H110     H      0.816900000000     0.243890000000     0.064400000000     0.0562107  
H111     H      0.739630000000     0.246640000000     0.983110000000     0.0594785  
H112     H      0.689160000000     0.438230000000     0.967370000000     0.154151   
H113     H      0.784880000000     0.599250000000     0.832490000000     0.0458859  
H114     H      0.694650000000     0.559280000000     0.813430000000     0.0580343  
H115     H      0.845120000000     0.579510000000     0.755010000000     0.051769   
H116     H      0.808570000000     0.516990000000     0.682440000000     0.0674861  
H117     H      0.769840000000     0.548820000000     0.884590000000     0.0586011  
H118     H      0.722740000000     0.491390000000     0.815730000000     0.0606956  
H119     H      0.796740000000     0.465910000000     0.735090000000     0.061      
H120     H      0.957500000000     0.567660000000     0.792500000000     0.149951   
H121     H      0.046680000000     0.580940000000     0.955850000000     0.0485027  
H122     H      0.135260000000     0.555820000000     0.995150000000     0.0561622  
H123     H      0.977120000000     0.596860000000     0.037180000000     0.0561684  
H124     H      0.018750000000     0.578700000000     0.128130000000     0.0612096  
H125     H      0.062410000000     0.511750000000     0.936540000000     0.0588802  
H126     H      0.106970000000     0.495030000000     0.025930000000     0.0515427  
H127     H      0.033960000000     0.509370000000     0.108270000000     0.0584646  
H128     H      0.857090000000     0.511630000000     0.011190000000     0.119044   
In1      In     0.896510000000     0.411080000000     0.925340000000     2.43227    
In2      In     0.186930000000     0.671760000000     0.143070000000     2.41745    
In3      In     0.442850000000     0.896100000000     0.873640000000     2.41106    
In4      In     0.630470000000     0.156420000000     0.168150000000     2.40812    
In5      In     0.350610000000     0.387060000000     0.425430000000     2.42635    
In6      In     0.654430000000     0.615940000000     0.629410000000     2.427      
In7      In     0.884180000000     0.876950000000     0.387810000000     2.42451    
In8      In     0.113970000000     0.115410000000     0.678310000000     2.44058    
N1       N      0.036950000000     0.999680000000     0.583850000000    -0.160033   
N2       N      0.963390000000     0.976840000000     0.497230000000    -0.162976   
N3       N      0.746380000000     0.657110000000     0.493770000000    -0.159149   
N4       N      0.797070000000     0.753200000000     0.458520000000    -0.165553   
N5       N      0.170360000000     0.242270000000     0.584160000000    -0.155654   
N6       N      0.229340000000     0.317930000000     0.518870000000    -0.162701   
N7       N      0.459120000000     0.446870000000     0.538740000000    -0.153549   
N8       N      0.540280000000     0.497350000000     0.603350000000    -0.165179   
N9       N      0.767550000000     0.970040000000     0.312230000000    -0.159323   
N10      N      0.741640000000     0.062150000000     0.248990000000    -0.164045   
N11      N      0.535830000000     0.245580000000     0.277340000000    -0.160057   
N12      N      0.439830000000     0.294710000000     0.317140000000    -0.165488   
N13      N      0.237350000000     0.019840000000     0.739690000000    -0.160966   
N14      N      0.324060000000     0.995860000000     0.812370000000    -0.162184   
N15      N      0.541850000000     0.830840000000     0.752650000000    -0.158745   
N16      N      0.606170000000     0.767130000000     0.680880000000    -0.163694   
N17      N      0.526690000000     0.058990000000     0.078760000000    -0.160671   
N18      N      0.521920000000     0.999570000000     0.979450000000    -0.161868   
N19      N      0.100370000000     0.778280000000     0.240760000000    -0.161717   
N20      N      0.998780000000     0.804710000000     0.288540000000    -0.164887   
N21      N      0.372010000000     0.771400000000     0.960890000000    -0.161403   
N22      N      0.288190000000     0.755870000000     0.038630000000    -0.163989   
N23      N      0.275000000000     0.506560000000     0.335230000000    -0.161134   
N24      N      0.276760000000     0.564940000000     0.235460000000    -0.164376   
N25      N      0.964670000000     0.275820000000     0.852790000000    -0.155529   
N26      N      0.013230000000     0.189890000000     0.790880000000    -0.162444   
N27      N      0.779730000000     0.342760000000     0.025110000000    -0.158364   
N28      N      0.730530000000     0.249560000000     0.070740000000    -0.163999   
N29      N      0.830360000000     0.525890000000     0.822480000000    -0.161809   
N30      N      0.746600000000     0.536080000000     0.744220000000    -0.162679   
N31      N      0.999160000000     0.522230000000     0.998840000000    -0.157274   
N32      N      0.081620000000     0.567820000000     0.065760000000    -0.164106   
O1       O      0.867680000000     0.373610000000     0.007520000000    -0.485332   
O2       O      0.811160000000     0.376780000000     0.940710000000    -0.479149   
O3       O      0.835680000000     0.479150000000     0.905710000000    -0.498634   
O4       O      0.921270000000     0.467300000000     0.995750000000    -0.455809   
O5       O      0.960350000000     0.342400000000     0.921810000000    -0.480025   
O6       O      0.979430000000     0.457360000000     0.931230000000    -0.474266   
O7       O      0.890370000000     0.454940000000     0.841890000000    -0.479319   
O8       O      0.901050000000     0.345870000000     0.857420000000    -0.485629   
O9       O      0.150840000000     0.699970000000     0.225800000000    -0.504953   
O10      O      0.135430000000     0.749410000000     0.155470000000    -0.481232   
O11      O      0.214900000000     0.585940000000     0.166270000000    -0.501584   
O12      O      0.163420000000     0.614910000000     0.071670000000    -0.486889   
O13      O      0.266870000000     0.716340000000     0.123160000000    -0.495488   
O14      O      0.104090000000     0.629050000000     0.135320000000    -0.498216   
O15      O      0.253000000000     0.652230000000     0.208180000000    -0.478779   
O16      O      0.206610000000     0.712500000000     0.059400000000    -0.486193   
O17      O      0.429540000000     0.846000000000     0.952530000000    -0.476903   
O18      O      0.385090000000     0.822310000000     0.880880000000    -0.492974   
O19      O      0.411850000000     0.960650000000     0.813150000000    -0.478269   
O20      O      0.465050000000     0.981550000000     0.904820000000    -0.487337   
O21      O      0.526990000000     0.869700000000     0.839300000000    -0.496861   
O22      O      0.502790000000     0.913740000000     0.944700000000    -0.465462   
O23      O      0.356060000000     0.931420000000     0.874800000000    -0.494962   
O24      O      0.457570000000     0.856380000000     0.788510000000    -0.485605   
O25      O      0.569600000000     0.163600000000     0.243000000000    -0.477639   
O26      O      0.594040000000     0.235070000000     0.201240000000    -0.469068   
O27      O      0.592750000000     0.073660000000     0.146080000000    -0.493743   
O28      O      0.650690000000     0.201390000000     0.086930000000    -0.477547   
O29      O      0.678520000000     0.132200000000     0.245400000000    -0.496867   
O30      O      0.709160000000     0.204770000000     0.152400000000    -0.500756   
O31      O      0.564810000000     0.142810000000     0.101730000000    -0.472332   
O32      O      0.693570000000     0.087840000000     0.170350000000    -0.490551   
O33      O      0.375330000000     0.446790000000     0.493410000000    -0.458888   
O34      O      0.434260000000     0.387730000000     0.467910000000    -0.495853   
O35      O      0.271580000000     0.336480000000     0.434730000000    -0.486613   
O36      O      0.285480000000     0.417610000000     0.364890000000    -0.500541   
O37      O      0.404410000000     0.376320000000     0.348620000000    -0.504923   
O38      O      0.341030000000     0.475740000000     0.397300000000    -0.470357   
O39      O      0.312290000000     0.361720000000     0.508410000000    -0.485637   
O40      O      0.384940000000     0.304930000000     0.395120000000    -0.497896   
O41      O      0.568230000000     0.580110000000     0.639310000000    -0.499222   
O42      O      0.625530000000     0.535810000000     0.590390000000    -0.500012   
O43      O      0.662300000000     0.691280000000     0.685590000000    -0.497311   
O44      O      0.670550000000     0.586860000000     0.718790000000    -0.491029   
O45      O      0.662870000000     0.640560000000     0.537510000000    -0.473697   
O46      O      0.727640000000     0.565340000000     0.655260000000    -0.487013   
O47      O      0.598200000000     0.690520000000     0.625500000000    -0.489944   
O48      O      0.735040000000     0.633740000000     0.585960000000    -0.492968   
O49      O      0.808230000000     0.822310000000     0.394190000000    -0.495822   
O50      O      0.873640000000     0.807940000000     0.450770000000    -0.491796   
O51      O      0.826250000000     0.949460000000     0.385180000000    -0.482909   
O52      O      0.953870000000     0.935470000000     0.411210000000    -0.503221   
O53      O      0.947320000000     0.810930000000     0.368890000000    -0.505015   
O54      O      0.892980000000     0.918880000000     0.472310000000    -0.484955   
O55      O      0.829820000000     0.898900000000     0.313590000000    -0.486319   
O56      O      0.934800000000     0.872010000000     0.307230000000    -0.487593   
O57      O      0.042680000000     0.057140000000     0.660760000000    -0.473904   
O58      O      0.107700000000     0.059540000000     0.602550000000    -0.488018   
O59      O      0.093780000000     0.146380000000     0.766160000000    -0.494606   
O60      O      0.147010000000     0.048360000000     0.736040000000    -0.495017   
O61      O      0.119470000000     0.163480000000     0.597330000000    -0.477297   
O62      O      0.203760000000     0.090730000000     0.685510000000    -0.483243   
O63      O      0.035110000000     0.160400000000     0.702160000000    -0.486187   
O64      O      0.162550000000     0.194610000000     0.667200000000    -0.492087   
O65      O      0.907680000000     0.933340000000     0.675760000000    -0.169503   
O66      O      0.933290000000     0.040220000000     0.676600000000    -0.143807   
O67      O      0.007420000000     0.964880000000     0.714250000000    -0.252786   
O68      O      0.647770000000     0.684200000000     0.355380000000    -0.164014   
O69      O      0.614370000000     0.706840000000     0.459760000000    -0.145566   
O70      O      0.641240000000     0.602120000000     0.431210000000    -0.247519   
O71      O      0.069110000000     0.271130000000     0.450980000000    -0.171374   
O72      O      0.048910000000     0.257460000000     0.560410000000    -0.15292    
O73      O      0.072090000000     0.169380000000     0.495110000000    -0.248988   
O74      O      0.375270000000     0.499660000000     0.676710000000    -0.173808   
O75      O      0.368000000000     0.407810000000     0.615590000000    -0.152013   
O76      O      0.324740000000     0.502920000000     0.576240000000    -0.245514   
O77      O      0.692200000000     0.064950000000     0.434690000000    -0.166011   
O78      O      0.801160000000     0.047830000000     0.431650000000    -0.146531   
O79      O      0.731050000000     0.961560000000     0.444730000000    -0.25187    
O80      O      0.598170000000     0.389800000000     0.230550000000    -0.168926   
O81      O      0.525370000000     0.343230000000     0.159010000000    -0.156613   
O82      O      0.610720000000     0.284190000000     0.198810000000    -0.149021   
O83      O      0.371380000000     0.036980000000     0.632280000000    -0.157782   
O84      O      0.309770000000     0.121270000000     0.667750000000    -0.147015   
O85      O      0.263610000000     0.040460000000     0.604460000000    -0.254889   
O86      O      0.479610000000     0.865940000000     0.598510000000    -0.1658     
O87      O      0.495840000000     0.927670000000     0.689870000000    -0.149124   
O88      O      0.409180000000     0.857670000000     0.685470000000    -0.251794   
O89      O      0.414330000000     0.156210000000     0.994150000000    -0.166987   
O90      O      0.519790000000     0.186040000000     0.007100000000    -0.137319   
O91      O      0.454890000000     0.170030000000     0.098590000000    -0.253894   
O92      O      0.063900000000     0.918580000000     0.149060000000    -0.169373   
O93      O      0.060370000000     0.816970000000     0.106540000000    -0.150771   
O94      O      0.157360000000     0.858520000000     0.145120000000    -0.255667   
O95      O      0.471230000000     0.733920000000     0.095730000000    -0.166501   
O96      O      0.455940000000     0.838020000000     0.063340000000    -0.150807   
O97      O      0.500860000000     0.764290000000     0.991090000000    -0.256208   
O98      O      0.321840000000     0.658470000000     0.397530000000    -0.167721   
O99      O      0.392320000000     0.574490000000     0.387570000000    -0.14343    
O100     O      0.302730000000     0.565150000000     0.455430000000    -0.247964   
O101     O      0.043970000000     0.183690000000     0.971210000000    -0.170838   
O102     O      0.945780000000     0.233870000000     0.971620000000    -0.159426   
O103     O      0.039470000000     0.293480000000     0.983990000000    -0.24956    
O104     O      0.630790000000     0.342700000000     0.938580000000    -0.161566   
O105     O      0.728210000000     0.320150000000     0.891240000000    -0.148168   
O106     O      0.709230000000     0.421220000000     0.935910000000    -0.251825   
O107     O      0.927590000000     0.541810000000     0.681300000000    -0.170364   
O108     O      0.911290000000     0.444390000000     0.730490000000    -0.146214   
O109     O      0.959760000000     0.527410000000     0.788650000000    -0.25407    
O110     O      0.881350000000     0.581900000000     0.098360000000    -0.171509   
O111     O      0.929750000000     0.487210000000     0.131470000000    -0.160993   
O112     O      0.890890000000     0.497110000000     0.026280000000    -0.150743   
S1       S      0.958160000000     0.977880000000     0.666890000000     0.295049   
S2       S      0.656500000000     0.668570000000     0.422030000000     0.296411   
S3       S      0.086390000000     0.235610000000     0.507210000000     0.294629   
S4       S      0.376820000000     0.474870000000     0.612350000000     0.295866   
S5       S      0.740720000000     0.022340000000     0.413420000000     0.298221   
S6       S      0.566010000000     0.332580000000     0.213360000000     0.270968   
S7       S      0.309590000000     0.054720000000     0.654760000000     0.296472   
S8       S      0.475280000000     0.866940000000     0.667540000000     0.294476   
S9       S      0.469580000000     0.148440000000     0.033650000000     0.296192   
S10      S      0.089040000000     0.855930000000     0.155020000000     0.294789   
S11      S      0.454540000000     0.773500000000     0.042290000000     0.296618   
S12      S      0.326750000000     0.590980000000     0.395150000000     0.295382   
S13      S      0.010660000000     0.239610000000     0.951670000000     0.294569   
S14      S      0.697770000000     0.353730000000     0.942710000000     0.296663   
S15      S      0.911780000000     0.511370000000     0.740890000000     0.295363   
S16      S      0.919960000000     0.529660000000     0.078540000000     0.274037   


