data_structure

_audit_creation_method RASPA-1.0
_audit_creation_date 2023-5-22
_audit_author_name 'Poobodin Mano'

_cell_length_a    23.8088
_cell_length_b    25.4489
_cell_length_c    25.3474
_cell_angle_alpha 90
_cell_angle_beta  90
_cell_angle_gamma 90
_cell_volume      15358.2

_symmetry_cell_setting          triclinic
_symmetry_space_group_name_Hall 'P 1'
_symmetry_space_group_name_H-M  'P 1'
_symmetry_Int_Tables_number     1

_symmetry_equiv_pos_as_xyz 'x,y,z'

loop_
_atom_site_label
_atom_site_type_symbol
_atom_site_fract_x
_atom_site_fract_y
_atom_site_fract_z
_atom_site_charge
C1       C      0.939570000000     0.459170000000     0.941740000000     0.419659   
C2       C      0.820130000000     0.436360000000     0.814230000000     0.420592   
C3       C      0.980470000000     0.343120000000     0.821870000000     0.400566   
C4       C      0.832130000000     0.311490000000     0.926390000000     0.410433   
C5       C      0.072480000000     0.572110000000     0.076960000000     0.422024   
C6       C      0.217990000000     0.684910000000     0.086530000000     0.410532   
C7       C      0.092500000000     0.691010000000     0.205720000000     0.408071   
C8       C      0.194610000000     0.543790000000     0.194020000000     0.410891   
C9       C      0.468160000000     0.900710000000     0.947410000000     0.410413   
C10      C      0.348120000000     0.786900000000     0.940280000000     0.413287   
C11      C      0.346810000000     0.909890000000     0.810200000000     0.418906   
C12      C      0.465740000000     0.790870000000     0.800050000000     0.419653   
C13      C      0.708240000000     0.165310000000     0.027790000000     0.418001   
C14      C      0.611930000000     0.173490000000     0.177840000000     0.419046   
C15      C      0.603650000000     0.037030000000     0.055910000000     0.421516   
C16      C      0.737030000000     0.065800000000     0.179580000000     0.417334   
C17      C      0.332220000000     0.410960000000     0.305520000000     0.428876   
C18      C      0.474570000000     0.298630000000     0.299810000000     0.41195    
C19      C      0.480470000000     0.423620000000     0.412370000000     0.408446   
C20      C      0.349240000000     0.298610000000     0.433670000000     0.41706    
C21      C      0.738420000000     0.674280000000     0.539930000000     0.409567   
C22      C      0.722380000000     0.564890000000     0.671010000000     0.406239   
C23      C      0.587730000000     0.683350000000     0.651910000000     0.416011   
C24      C      0.599490000000     0.559210000000     0.539250000000     0.414684   
C25      C      0.983130000000     0.845460000000     0.313920000000     0.41571    
C26      C      0.973510000000     0.954210000000     0.461420000000     0.413219   
C27      C      0.866150000000     0.976180000000     0.330980000000     0.412362   
C28      C      0.859380000000     0.823300000000     0.432300000000     0.423128   
C29      C      0.113210000000     0.206290000000     0.710930000000     0.419975   
C30      C      0.225800000000     0.067470000000     0.719750000000     0.41249    
C31      C      0.097470000000     0.065960000000     0.605190000000     0.40908    
C32      C      0.237330000000     0.178810000000     0.582040000000     0.40811    
C33      C      0.080310000000     0.979660000000     0.563580000000    -0.0092606  
C34      C      0.000610000000     0.040860000000     0.579920000000    -0.0332979  
C35      C      0.062210000000     0.972060000000     0.506500000000    -0.0110309  
C36      C      0.977700000000     0.031090000000     0.523350000000     0.0937569  
C37      C      0.829910000000     0.719310000000     0.530200000000    -0.0100278  
C38      C      0.770770000000     0.701450000000     0.451450000000    -0.0376868  
C39      C      0.837450000000     0.776340000000     0.513350000000    -0.0116452  
C40      C      0.779090000000     0.757880000000     0.430950000000     0.0940998  
C41      C      0.318360000000     0.236230000000     0.561540000000    -0.0117121  
C42      C      0.272740000000     0.183210000000     0.490500000000    -0.0352799  
C43      C      0.319800000000     0.284280000000     0.525380000000    -0.0105687  
C44      C      0.274750000000     0.230930000000     0.452530000000     0.094556   
C45      C      0.564270000000     0.438110000000     0.468200000000    -0.0109317  
C46      C      0.518580000000     0.513430000000     0.421750000000    -0.035279   
C47      C      0.566850000000     0.469950000000     0.519190000000    -0.010383   
C48      C      0.522190000000     0.547210000000     0.472440000000     0.0954808  
C49      C      0.777670000000     0.022840000000     0.311530000000    -0.00986615 
C50      C      0.865430000000     0.047710000000     0.264470000000    -0.0342966  
C51      C      0.747670000000     0.012820000000     0.259500000000    -0.00997759 
C52      C      0.834870000000     0.043420000000     0.210430000000     0.0943759  
C53      C      0.490530000000     0.215040000000     0.253000000000    -0.0129396  
C54      C      0.548200000000     0.294960000000     0.231340000000    -0.0360544  
C55      C      0.543090000000     0.181030000000     0.249570000000    -0.008108   
C56      C      0.601230000000     0.259940000000     0.225830000000     0.0964873  
C57      C      0.314860000000     0.038250000000     0.761070000000    -0.0115613  
C58      C      0.224800000000     0.990700000000     0.779510000000    -0.0374721  
C59      C      0.343670000000     0.985590000000     0.750090000000    -0.0112398  
C60      C      0.253650000000     0.937960000000     0.767350000000     0.0946834  
C61      C      0.557440000000     0.770450000000     0.684780000000    -0.0106326  
C62      C      0.493860000000     0.693060000000     0.692480000000    -0.0337149  
C63      C      0.548510000000     0.783690000000     0.742950000000    -0.0103403  
C64      C      0.481880000000     0.706210000000     0.751080000000     0.0946438  
C65      C      0.473840000000     0.974210000000     0.010800000000    -0.0111616  
C66      C      0.549700000000     0.906720000000     0.007730000000    -0.0351476  
C67      C      0.516990000000     0.018230000000     0.007560000000    -0.00949248 
C68      C      0.595200000000     0.950430000000     0.008580000000     0.094964   
C69      C      0.003760000000     0.728500000000     0.239340000000    -0.0116766  
C70      C      0.096390000000     0.755740000000     0.278480000000    -0.0348978  
C71      C      0.985520000000     0.785940000000     0.237450000000    -0.0103057  
C72      C      0.076640000000     0.813820000000     0.278140000000     0.094131   
C73      C      0.234960000000     0.765050000000     0.033890000000    -0.00996813 
C74      C      0.315150000000     0.706940000000     0.059510000000    -0.0350754  
C75      C      0.255430000000     0.765900000000     0.976950000000    -0.0115082  
C76      C      0.338620000000     0.709780000000     0.002400000000     0.0948351  
C77      C      0.208570000000     0.495850000000     0.277690000000    -0.0103757  
C78      C      0.237420000000     0.455490000000     0.192870000000    -0.0358285  
C79      C      0.264700000000     0.482250000000     0.302810000000    -0.00917495 
C80      C      0.293170000000     0.435950000000     0.216730000000     0.0937737  
C81      C      0.027690000000     0.325680000000     0.736570000000    -0.0120022  
C82      C      0.073480000000     0.299620000000     0.820730000000    -0.0348514  
C83      C      0.037360000000     0.271080000000     0.713320000000    -0.00927092 
C84      C      0.086420000000     0.244070000000     0.798630000000     0.0946681  
C85      C      0.826220000000     0.226700000000     0.973660000000    -0.0129167  
C86      C      0.741870000000     0.287070000000     0.967310000000    -0.0411302  
C87      C      0.786860000000     0.179570000000     0.966350000000    -0.0106886  
C88      C      0.704690000000     0.238620000000     0.958240000000     0.0985584  
C89      C      0.784770000000     0.489430000000     0.690230000000    -0.0119563  
C90      C      0.757380000000     0.553110000000     0.761990000000    -0.0387353  
C91      C      0.773330000000     0.443590000000     0.728070000000    -0.0117039  
C92      C      0.744610000000     0.506360000000     0.798230000000     0.0969085  
C93      C      0.995200000000     0.540310000000     0.954370000000    -0.0102726  
C94      C      0.943030000000     0.500970000000     0.029710000000    -0.0345733  
C95      C      0.048580000000     0.544090000000     0.987430000000    -0.00975279 
C96      C      0.995220000000     0.506130000000     0.065850000000     0.0954243  
H1       H      0.086380000000     0.999870000000     0.481390000000     0.0543869  
H2       H      0.126610000000     0.974770000000     0.566380000000     0.0575188  
H3       H      0.992420000000     0.064630000000     0.498740000000     0.0405555  
H4       H      0.989890000000     0.081530000000     0.592400000000     0.0746853  
H5       H      0.074130000000     0.931570000000     0.494370000000     0.0644025  
H6       H      0.060370000000     0.948410000000     0.587880000000     0.0509857  
H7       H      0.979920000000     0.013540000000     0.608080000000     0.069612   
H8       H      0.805920000000     0.800590000000     0.534690000000     0.0498475  
H9       H      0.831760000000     0.716840000000     0.573970000000     0.0537408  
H10      H      0.741070000000     0.780360000000     0.443110000000     0.0430104  
H11      H      0.729100000000     0.686770000000     0.438140000000     0.0754458  
H12      H      0.879640000000     0.789460000000     0.526810000000     0.0571974  
H13      H      0.865440000000     0.695990000000     0.513970000000     0.047765   
H14      H      0.803280000000     0.675660000000     0.433400000000     0.0660684  
H15      H      0.282200000000     0.308740000000     0.533990000000     0.0460967  
H16      H      0.314050000000     0.249600000000     0.603110000000     0.055532   
H17      H      0.233500000000     0.251280000000     0.456260000000     0.0391692  
H18      H      0.235270000000     0.158860000000     0.481170000000     0.0765604  
H19      H      0.357410000000     0.308070000000     0.535670000000     0.0547892  
H20      H      0.359160000000     0.215270000000     0.557870000000     0.0491332  
H21      H      0.310440000000     0.158210000000     0.484290000000     0.069422   
H22      H      0.529280000000     0.460100000000     0.543320000000     0.0477891  
H23      H      0.559860000000     0.395760000000     0.478160000000     0.0547228  
H24      H      0.481370000000     0.542220000000     0.493360000000     0.0400246  
H25      H      0.480860000000     0.525160000000     0.398730000000     0.0784533  
H26      H      0.604470000000     0.457120000000     0.541760000000     0.0559509  
H27      H      0.604650000000     0.443340000000     0.446770000000     0.0507993  
H28      H      0.555950000000     0.521000000000     0.396590000000     0.0724569  
H29      H      0.751990000000     0.970490000000     0.249370000000     0.0564654  
H30      H      0.759400000000     0.997120000000     0.342550000000     0.0606419  
H31      H      0.845510000000     0.003910000000     0.194360000000     0.0427325  
H32      H      0.910550000000     0.037610000000     0.259510000000     0.0772937  
H33      H      0.702220000000     0.020980000000     0.265460000000     0.0589375  
H34      H      0.770340000000     0.064410000000     0.323210000000     0.0513127  
H35      H      0.863340000000     0.088890000000     0.278920000000     0.0719931  
H36      H      0.561560000000     0.178050000000     0.289770000000     0.0464816  
H37      H      0.461720000000     0.197930000000     0.282950000000     0.0630475  
H38      H      0.621930000000     0.259650000000     0.265260000000     0.0384356  
H39      H      0.560810000000     0.334040000000     0.246980000000     0.079531   
H40      H      0.530480000000     0.140740000000     0.237470000000     0.0592139  
H41      H      0.468790000000     0.213830000000     0.214190000000     0.059793   
H42      H      0.529010000000     0.301400000000     0.191910000000     0.0793988  
H43      H      0.340930000000     0.977840000000     0.706970000000     0.0464613  
H44      H      0.334470000000     0.069240000000     0.736250000000     0.0560648  
H45      H      0.248620000000     0.931920000000     0.724050000000     0.0381471  
H46      H      0.179670000000     0.988150000000     0.768470000000     0.0721519  
H47      H      0.388980000000     0.989230000000     0.759940000000     0.0556732  
H48      H      0.322200000000     0.048650000000     0.803110000000     0.0534529  
H49      H      0.227090000000     0.998160000000     0.822700000000     0.0696191  
H50      H      0.583570000000     0.766190000000     0.766020000000     0.0512264  
H51      H      0.600110000000     0.783470000000     0.672670000000     0.0547091  
H52      H      0.511560000000     0.682030000000     0.774870000000     0.0440678  
H53      H      0.491010000000     0.649880000000     0.686450000000     0.0775602  
H54      H      0.551290000000     0.827080000000     0.747460000000     0.0559723  
H55      H      0.526170000000     0.792790000000     0.661110000000     0.0495245  
H56      H      0.461340000000     0.711610000000     0.667130000000     0.0707983  
H57      H      0.522080000000     0.029560000000     0.965450000000     0.0500377  
H58      H      0.434050000000     0.987550000000     0.992140000000     0.0571621  
H59      H      0.607720000000     0.957090000000     0.966760000000     0.039      
H60      H      0.565630000000     0.872380000000     0.985120000000     0.0803284  
H61      H      0.499790000000     0.052890000000     0.028830000000     0.0607261  
H62      H      0.465160000000     0.965990000000     0.053120000000     0.0522709  
H63      H      0.541260000000     0.893130000000     0.048640000000     0.074596   
H64      H      0.997600000000     0.802210000000     0.198330000000     0.0501399  
H65      H      0.984030000000     0.707100000000     0.205900000000     0.0634558  
H66      H      0.090170000000     0.830390000000     0.239450000000     0.0408824  
H67      H      0.142540000000     0.754290000000     0.271930000000     0.077221   
H68      H      0.938970000000     0.787830000000     0.240230000000     0.0640412  
H69      H      0.987810000000     0.710940000000     0.276620000000     0.0555201  
H70      H      0.087760000000     0.737980000000     0.317710000000     0.0700014  
H71      H      0.233740000000     0.733900000000     0.955080000000     0.0544541  
H72      H      0.188460000000     0.769090000000     0.034330000000     0.0571862  
H73      H      0.321860000000     0.674740000000     0.981270000000     0.0443229  
H74      H      0.325740000000     0.668120000000     0.077020000000     0.0784366  
H75      H      0.242380000000     0.803740000000     0.958800000000     0.0658082  
H76      H      0.253040000000     0.799600000000     0.054710000000     0.0507234  
H77      H      0.335420000000     0.737620000000     0.084210000000     0.0708912  
H78      H      0.292140000000     0.517590000000     0.301120000000     0.0524857  
H79      H      0.191680000000     0.532020000000     0.296530000000     0.0566889  
H80      H      0.326400000000     0.463180000000     0.202160000000     0.0450432  
H81      H      0.243770000000     0.463170000000     0.150070000000     0.0713978  
H82      H      0.256930000000     0.473620000000     0.345220000000     0.0568325  
H83      H      0.178680000000     0.463210000000     0.285670000000     0.0515783  
H84      H      0.205530000000     0.423660000000     0.196140000000     0.0679386  
H85      H      0.998090000000     0.247900000000     0.718050000000     0.0483192  
H86      H      0.989190000000     0.342980000000     0.718830000000     0.0541849  
H87      H      0.052620000000     0.217620000000     0.813400000000     0.0403714  
H88      H      0.067450000000     0.297180000000     0.864150000000     0.0773271  
H89      H      0.044950000000     0.275550000000     0.670260000000     0.055068   
H90      H      0.063890000000     0.351010000000     0.725470000000     0.0478414  
H91      H      0.109890000000     0.325990000000     0.813480000000     0.0696925  
H92      H      0.784540000000     0.170520000000     0.923460000000     0.046895   
H93      H      0.867120000000     0.217830000000     0.954420000000     0.058091   
H94      H      0.707010000000     0.230820000000     0.915020000000     0.0354621  
H95      H      0.724560000000     0.320660000000     0.944410000000     0.0780057  
H96      H      0.805550000000     0.144740000000     0.986110000000     0.0632325  
H97      H      0.834150000000     0.231860000000     0.016580000000     0.0590391  
H98      H      0.740700000000     0.297890000000     0.009800000000     0.0781478  
H99      H      0.729120000000     0.430610000000     0.722420000000     0.0487494  
H100     H      0.774490000000     0.476850000000     0.649340000000     0.0550467  
H101     H      0.700440000000     0.495130000000     0.788970000000     0.0389596  
H102     H      0.728520000000     0.586110000000     0.771630000000     0.0725343  
H103     H      0.801040000000     0.410170000000     0.717090000000     0.0561661  
H104     H      0.830390000000     0.498660000000     0.691670000000     0.047206   
H105     H      0.801090000000     0.566680000000     0.769280000000     0.0670743  
H106     H      0.075230000000     0.509280000000     0.978660000000     0.0485542  
H107     H      0.006850000000     0.535050000000     0.912220000000     0.0555957  
H108     H      0.016500000000     0.467150000000     0.065570000000     0.0404738  
H109     H      0.917770000000     0.466420000000     0.042240000000     0.0803675  
H110     H      0.072190000000     0.579510000000     0.974420000000     0.0565583  
H111     H      0.971910000000     0.578020000000     0.958070000000     0.0536646  
H112     H      0.916000000000     0.536300000000     0.034160000000     0.0757589  
In1      In     0.894500000000     0.386040000000     0.876920000000     2.41125    
In2      In     0.145620000000     0.623350000000     0.140590000000     2.42698    
In3      In     0.409250000000     0.847200000000     0.873740000000     2.43094    
In4      In     0.665270000000     0.109290000000     0.109200000000     2.43919    
In5      In     0.408730000000     0.357530000000     0.363790000000     2.42263    
In6      In     0.663100000000     0.622220000000     0.600890000000     2.41533    
In7      In     0.920370000000     0.899940000000     0.384470000000     2.42783    
In8      In     0.169060000000     0.132270000000     0.654100000000     2.40514    
N1       N      0.001590000000     0.982500000000     0.499290000000    -0.167012   
N2       N      0.061270000000     0.031150000000     0.582260000000    -0.161149   
N3       N      0.915660000000     0.031220000000     0.522580000000    -0.0176775  
N4       N      0.829110000000     0.783800000000     0.455900000000    -0.167332   
N5       N      0.777090000000     0.698970000000     0.508860000000    -0.162632   
N6       N      0.780600000000     0.754290000000     0.372720000000    -0.0280535  
N7       N      0.318590000000     0.269330000000     0.469010000000    -0.169995   
N8       N      0.272920000000     0.200550000000     0.545760000000    -0.16249    
N9       N      0.281170000000     0.214010000000     0.397100000000    -0.0169182  
N10      N      0.566640000000     0.527090000000     0.508540000000    -0.168625   
N11      N      0.518180000000     0.457240000000     0.434920000000    -0.160791   
N12      N      0.528880000000     0.603570000000     0.459900000000    -0.0181427  
N13      N      0.772520000000     0.044620000000     0.216580000000    -0.168564   
N14      N      0.837920000000     0.014180000000     0.303820000000    -0.160608   
N15      N      0.855560000000     0.083130000000     0.172640000000    -0.0169688  
N16      N      0.585010000000     0.204820000000     0.213920000000    -0.169332   
N17      N      0.505640000000     0.269740000000     0.265010000000    -0.159294   
N18      N      0.641510000000     0.281780000000     0.187300000000    -0.0192439  
N19      N      0.315180000000     0.942400000000     0.778640000000    -0.167248   
N20      N      0.254080000000     0.033570000000     0.752000000000    -0.160541   
N21      N      0.222790000000     0.895420000000     0.794250000000    -0.0301512  
N22      N      0.494830000000     0.762270000000     0.763080000000    -0.16943    
N23      N      0.548670000000     0.714050000000     0.676500000000    -0.162314   
N24      N      0.424160000000     0.691190000000     0.766270000000    -0.0163958  
N25      N      0.572100000000     0.001210000000     0.028330000000    -0.170362   
N26      N      0.496790000000     0.926850000000     0.985960000000    -0.161606   
N27      N      0.645650000000     0.933500000000     0.037940000000    -0.0187531  
N28      N      0.014260000000     0.816170000000     0.279160000000    -0.169704   
N29      N      0.065450000000     0.724960000000     0.238790000000    -0.160836   
N30      N      0.103410000000     0.845130000000     0.320310000000    -0.0176956  
N31      N      0.316670000000     0.756890000000     0.974240000000    -0.166895   
N32      N      0.254350000000     0.716800000000     0.059880000000    -0.161858   
N33      N      0.400560000000     0.706590000000     0.001650000000    -0.0164116  
N34      N      0.293810000000     0.438350000000     0.275880000000    -0.166606   
N35      N      0.215740000000     0.501610000000     0.220710000000    -0.160687   
N36      N      0.302830000000     0.382930000000     0.194480000000    -0.0285907  
N37      N      0.083620000000     0.242610000000     0.739870000000    -0.170134   
N38      N      0.024450000000     0.322320000000     0.794200000000    -0.160795   
N39      N      0.140590000000     0.224090000000     0.818800000000    -0.0183039  
N40      N      0.730170000000     0.192770000000     0.985910000000    -0.166866   
N41      N      0.800590000000     0.275270000000     0.952910000000    -0.160987   
N42      N      0.645260000000     0.250370000000     0.969870000000    -0.0295764  
N43      N      0.781100000000     0.461110000000     0.783110000000    -0.167573   
N44      N      0.752920000000     0.536420000000     0.706500000000    -0.161498   
N45      N      0.744930000000     0.522290000000     0.854240000000    -0.0285637  
N46      N      0.036450000000     0.544890000000     0.044680000000    -0.1696     
N47      N      0.959980000000     0.497460000000     0.974220000000    -0.161408   
N48      N      0.978780000000     0.517850000000     0.120820000000    -0.0184005  
O1       O      0.812470000000     0.354780000000     0.911260000000    -0.493325   
O2       O      0.883430000000     0.305020000000     0.916050000000    -0.49203    
O3       O      0.836910000000     0.454310000000     0.857700000000    -0.47269    
O4       O      0.949400000000     0.458150000000     0.892860000000    -0.498508   
O5       O      0.978660000000     0.343190000000     0.871650000000    -0.49261    
O6       O      0.908130000000     0.422760000000     0.958020000000    -0.497616   
O7       O      0.842510000000     0.393110000000     0.801400000000    -0.485626   
O8       O      0.938740000000     0.364350000000     0.799750000000    -0.487104   
O9       O      0.195880000000     0.547140000000     0.144370000000    -0.496545   
O10      O      0.170260000000     0.581480000000     0.216870000000    -0.494991   
O11      O      0.165790000000     0.693250000000     0.087760000000    -0.500514   
O12      O      0.110380000000     0.602070000000     0.059360000000    -0.498771   
O13      O      0.066850000000     0.663450000000     0.172070000000    -0.490521   
O14      O      0.071770000000     0.568340000000     0.126530000000    -0.481225   
O15      O      0.233890000000     0.645160000000     0.112310000000    -0.49558    
O16      O      0.145040000000     0.684380000000     0.206660000000    -0.493333   
O17      O      0.422970000000     0.773810000000     0.823780000000    -0.478334   
O18      O      0.480260000000     0.836510000000     0.813910000000    -0.500793   
O19      O      0.398510000000     0.776820000000     0.928690000000    -0.469293   
O20      O      0.421020000000     0.915790000000     0.930610000000    -0.502587   
O21      O      0.397110000000     0.920140000000     0.822300000000    -0.497886   
O22      O      0.486220000000     0.859110000000     0.926410000000    -0.492922   
O23      O      0.328530000000     0.827000000000     0.917450000000    -0.479857   
O24      O      0.329080000000     0.867410000000     0.829370000000    -0.463752   
O25      O      0.684460000000     0.060220000000     0.181950000000    -0.501687   
O26      O      0.753530000000     0.092480000000     0.140640000000    -0.468066   
O27      O      0.656190000000     0.186910000000     0.153890000000    -0.473161   
O28      O      0.661480000000     0.175300000000     0.048650000000    -0.467417   
O29      O      0.653900000000     0.029280000000     0.069350000000    -0.486858   
O30      O      0.733750000000     0.127180000000     0.048820000000    -0.486143   
O31      O      0.594880000000     0.127840000000     0.166790000000    -0.492976   
O32      O      0.584840000000     0.081360000000     0.069250000000    -0.497466   
O33      O      0.342920000000     0.295600000000     0.384400000000    -0.474595   
O34      O      0.385610000000     0.331830000000     0.447850000000    -0.497453   
O35      O      0.481330000000     0.347370000000     0.305780000000    -0.49138    
O36      O      0.369350000000     0.381900000000     0.285750000000    -0.478398   
O37      O      0.441540000000     0.439320000000     0.382450000000    -0.497689   
O38      O      0.334170000000     0.413720000000     0.355230000000    -0.497967   
O39      O      0.435420000000     0.279170000000     0.327070000000    -0.484782   
O40      O      0.482630000000     0.374400000000     0.418720000000    -0.493502   
O41      O      0.634970000000     0.541490000000     0.571790000000    -0.48864    
O42      O      0.596300000000     0.608700000000     0.538260000000    -0.472447   
O43      O      0.693540000000     0.604390000000     0.684180000000    -0.500924   
O44      O      0.744140000000     0.669500000000     0.589080000000    -0.50081    
O45      O      0.581440000000     0.634510000000     0.646100000000    -0.498943   
O46      O      0.694550000000     0.653540000000     0.521630000000    -0.491816   
O47      O      0.721020000000     0.554000000000     0.622440000000    -0.488582   
O48      O      0.632550000000     0.701560000000     0.632600000000    -0.499275   
O49      O      0.902940000000     0.842900000000     0.452690000000    -0.500387   
O50      O      0.846180000000     0.843640000000     0.388920000000    -0.467806   
O51      O      0.995200000000     0.915160000000     0.438320000000    -0.480552   
O52      O      0.004220000000     0.876830000000     0.346860000000    -0.467977   
O53      O      0.842710000000     0.948130000000     0.365590000000    -0.490336   
O54      O      0.930320000000     0.842870000000     0.315770000000    -0.494522   
O55      O      0.924720000000     0.965600000000     0.445630000000    -0.481755   
O56      O      0.917440000000     0.966110000000     0.323330000000    -0.498653   
O57      O      0.239200000000     0.189740000000     0.630540000000    -0.491601   
O58      O      0.200760000000     0.145140000000     0.569890000000    -0.499063   
O59      O      0.173350000000     0.065110000000     0.713280000000    -0.49213    
O60      O      0.144750000000     0.172220000000     0.731500000000    -0.484273   
O61      O      0.149490000000     0.057160000000     0.608940000000    -0.490965   
O62      O      0.109770000000     0.203020000000     0.661330000000    -0.494982   
O63      O      0.249950000000     0.103200000000     0.693640000000    -0.490126   
O64      O      0.081480000000     0.108870000000     0.625270000000    -0.489964   
O65      O      0.896050000000     0.994250000000     0.554940000000    -0.0964815  
O66      O      0.896740000000     0.077440000000     0.539700000000    -0.101851   
O67      O      0.832530000000     0.745460000000     0.355200000000    -0.0889334  
O68      O      0.760910000000     0.798060000000     0.350640000000    -0.0750032  
O69      O      0.326690000000     0.183930000000     0.392070000000    -0.0898318  
O70      O      0.236870000000     0.185320000000     0.382940000000    -0.0959066  
O71      O      0.573200000000     0.610560000000     0.428560000000    -0.0864158  
O72      O      0.483680000000     0.620510000000     0.434020000000    -0.0974238  
O73      O      0.849950000000     0.131100000000     0.193070000000    -0.0891095  
O74      O      0.910020000000     0.075220000000     0.163600000000    -0.0956423  
O75      O      0.615910000000     0.290540000000     0.141370000000    -0.0758132  
O76      O      0.660630000000     0.327740000000     0.204890000000    -0.0936124  
O77      O      0.229150000000     0.898040000000     0.846410000000    -0.083274   
O78      O      0.240040000000     0.848620000000     0.777240000000    -0.077665   
O79      O      0.387170000000     0.714300000000     0.734330000000    -0.0905506  
O80      O      0.417930000000     0.639430000000     0.761140000000    -0.0954095  
O81      O      0.631560000000     0.919630000000     0.086890000000    -0.0895538  
O82      O      0.668010000000     0.891580000000     0.014520000000    -0.0956192  
O83      O      0.099430000000     0.820160000000     0.366400000000    -0.0902472  
O84      O      0.157850000000     0.850560000000     0.309510000000    -0.0972993  
O85      O      0.422390000000     0.743560000000     0.032750000000    -0.0914919  
O86      O      0.416680000000     0.660120000000     0.020500000000    -0.0912657  
O87      O      0.282820000000     0.345590000000     0.226190000000    -0.0855938  
O88      O      0.357340000000     0.374350000000     0.186390000000    -0.0766808  
O89      O      0.181870000000     0.256890000000     0.805510000000    -0.0956326  
O90      O      0.138940000000     0.221520000000     0.871260000000    -0.097037   
O91      O      0.638560000000     0.267290000000     0.019200000000    -0.067105   
O92      O      0.613580000000     0.207890000000     0.962420000000    -0.0849271  
O93      O      0.793790000000     0.543880000000     0.867900000000    -0.0826672  
O94      O      0.734890000000     0.481150000000     0.885310000000    -0.0793932  
O95      O      0.948770000000     0.562030000000     0.122440000000    -0.0874454  
O96      O      0.946650000000     0.479180000000     0.139380000000    -0.0950923  


