data_structure

_audit_creation_method RASPA-1.0
_audit_creation_date 2023-5-22
_audit_author_name 'Poobodin Mano'

_cell_length_a    24.7917
_cell_length_b    25.8413
_cell_length_c    24.0772
_cell_angle_alpha 90
_cell_angle_beta  90
_cell_angle_gamma 90
_cell_volume      15425.1

_symmetry_cell_setting          triclinic
_symmetry_space_group_name_Hall 'P 1'
_symmetry_space_group_name_H-M  'P 1'
_symmetry_Int_Tables_number     1

_symmetry_equiv_pos_as_xyz 'x,y,z'

loop_
_atom_site_label
_atom_site_type_symbol
_atom_site_fract_x
_atom_site_fract_y
_atom_site_fract_z
_atom_site_charge
C1       C      0.968220000000     0.438030000000     0.978880000000     0.408433   
C2       C      0.854460000000     0.429240000000     0.834690000000     0.409913   
C3       C      0.971060000000     0.305480000000     0.862380000000     0.405837   
C4       C      0.833460000000     0.326810000000     0.978880000000     0.415162   
C5       C      0.082710000000     0.585830000000     0.087720000000     0.417209   
C6       C      0.199230000000     0.572400000000     0.227850000000     0.417394   
C7       C      0.209340000000     0.702390000000     0.107670000000     0.416596   
C8       C      0.077000000000     0.698410000000     0.228380000000     0.415542   
C9       C      0.337150000000     0.804730000000     0.958890000000     0.408167   
C10      C      0.462040000000     0.921620000000     0.955180000000     0.416014   
C11      C      0.456230000000     0.799170000000     0.822410000000     0.41522    
C12      C      0.335910000000     0.920230000000     0.820550000000     0.419061   
C13      C      0.569270000000     0.188600000000     0.204480000000     0.415276   
C14      C      0.692680000000     0.066010000000     0.207830000000     0.416735   
C15      C      0.574520000000     0.069720000000     0.068790000000     0.408782   
C16      C      0.700510000000     0.187210000000     0.078600000000     0.406136   
C17      C      0.304760000000     0.425940000000     0.353660000000     0.406863   
C18      C      0.422340000000     0.298720000000     0.327230000000     0.406984   
C19      C      0.440510000000     0.403280000000     0.471280000000     0.407335   
C20      C      0.305920000000     0.293710000000     0.467570000000     0.408142   
C21      C      0.704020000000     0.534620000000     0.714740000000     0.419771   
C22      C      0.574130000000     0.534570000000     0.584830000000     0.414248   
C23      C      0.587370000000     0.661120000000     0.715190000000     0.404981   
C24      C      0.694260000000     0.647080000000     0.570590000000     0.419611   
C25      C      0.917880000000     0.807940000000     0.327080000000     0.407874   
C26      C      0.928420000000     0.912520000000     0.472010000000     0.406715   
C27      C      0.796370000000     0.929390000000     0.346520000000     0.407362   
C28      C      0.802590000000     0.798790000000     0.467600000000     0.410413   
C29      C      0.059430000000     0.043710000000     0.587930000000     0.417729   
C30      C      0.183160000000     0.155090000000     0.582290000000     0.417099   
C31      C      0.064910000000     0.165070000000     0.722440000000     0.416316   
C32      C      0.183110000000     0.039830000000     0.722190000000     0.407676   
C33      C      0.943180000000     0.964330000000     0.557130000000    -0.0120288  
C34      C      0.021670000000     0.933170000000     0.500720000000    -0.0418208  
C35      C      0.967940000000     0.018490000000     0.559160000000    -0.0103723  
C36      C      0.046510000000     0.987490000000     0.502410000000     0.0947401  
C37      C      0.799650000000     0.732190000000     0.541350000000    -0.0121644  
C38      C      0.714120000000     0.763000000000     0.495360000000    -0.0429692  
C39      C      0.781480000000     0.676130000000     0.532810000000    -0.0094823  
C40      C      0.697430000000     0.706460000000     0.486530000000     0.0958753  
C41      C      0.296200000000     0.234550000000     0.547700000000    -0.0123374  
C42      C      0.214700000000     0.264330000000     0.494060000000    -0.0424091  
C43      C      0.273380000000     0.179530000000     0.548350000000    -0.0101841  
C44      C      0.193010000000     0.208780000000     0.494340000000     0.0949382  
C45      C      0.460430000000     0.449300000000     0.559090000000    -0.0118903  
C46      C      0.534810000000     0.426880000000     0.493010000000    -0.0415434  
C47      C      0.482290000000     0.504470000000     0.563830000000    -0.010921   
C48      C      0.556960000000     0.482160000000     0.497400000000     0.0940056  
C49      C      0.725510000000     0.944450000000     0.276110000000    -0.0121608  
C50      C      0.757460000000     0.017070000000     0.336520000000    -0.0415878  
C51      C      0.729640000000     0.979380000000     0.225170000000    -0.0106092  
C52      C      0.760280000000     0.053110000000     0.285770000000     0.0940151  
C53      C      0.452060000000     0.213470000000     0.291560000000    -0.0128715  
C54      C      0.474320000000     0.294450000000     0.239540000000    -0.0404285  
C55      C      0.510640000000     0.195590000000     0.286470000000    -0.0099428  
C56      C      0.533190000000     0.276600000000     0.233270000000     0.0929232  
C57      C      0.251380000000     0.030130000000     0.796600000000    -0.0123747  
C58      C      0.210460000000     0.951910000000     0.751390000000    -0.0420901  
C59      C      0.307600000000     0.006720000000     0.788750000000    -0.0102335  
C60      C      0.267010000000     0.929080000000     0.742810000000     0.0944397  
C61      C      0.523530000000     0.678490000000     0.791970000000    -0.0125222  
C62      C      0.575330000000     0.751050000000     0.747970000000    -0.0415005  
C63      C      0.471980000000     0.710730000000     0.788420000000    -0.0102491  
C64      C      0.523630000000     0.783680000000     0.744690000000     0.0936301  
C65      C      0.486120000000     0.035460000000     0.038090000000    -0.0128311  
C66      C      0.570360000000     0.013960000000     0.985300000000    -0.0408491  
C67      C      0.469750000000     0.978390000000     0.036930000000    -0.00985137 
C68      C      0.553810000000     0.956650000000     0.983930000000     0.0931268  
C69      C      0.948600000000     0.723200000000     0.290820000000    -0.0127943  
C70      C      0.984970000000     0.805610000000     0.251010000000    -0.0409282  
C71      C      0.006200000000     0.703550000000     0.299990000000    -0.00981063 
C72      C      0.042760000000     0.786240000000     0.260690000000     0.093519   
C73      C      0.247390000000     0.771540000000     0.985400000000    -0.012579   
C74      C      0.331210000000     0.737960000000     0.032150000000    -0.0409739  
C75      C      0.219510000000     0.774510000000     0.041830000000    -0.00961434 
C76      C      0.302220000000     0.740360000000     0.088510000000     0.0929395  
C77      C      0.234450000000     0.445840000000     0.284140000000    -0.0121418  
C78      C      0.263630000000     0.513180000000     0.352500000000    -0.0414171  
C79      C      0.237810000000     0.485480000000     0.237320000000    -0.0104158  
C80      C      0.264950000000     0.554160000000     0.306140000000     0.093479   
C81      C      0.042340000000     0.286610000000     0.793480000000    -0.0121265  
C82      C      0.004030000000     0.215510000000     0.851950000000    -0.0415974  
C83      C      0.034430000000     0.253710000000     0.741500000000    -0.0103706  
C84      C      0.997560000000     0.181230000000     0.800080000000     0.0935179  
C85      C      0.793200000000     0.216560000000     0.057130000000    -0.0134406  
C86      C      0.714410000000     0.248260000000     0.000720000000    -0.0416465  
C87      C      0.814770000000     0.271950000000     0.060340000000    -0.00922557 
C88      C      0.736720000000     0.303630000000     0.004360000000     0.0936222  
C89      C      0.825390000000     0.513060000000     0.794900000000    -0.0124782  
C90      C      0.798920000000     0.429940000000     0.749270000000    -0.0404029  
C91      C      0.766680000000     0.531010000000     0.793750000000    -0.00971436 
C92      C      0.739760000000     0.447650000000     0.747340000000     0.093146   
C93      C      0.975980000000     0.498310000000     0.058420000000    -0.0124034  
C94      C      0.057760000000     0.474240000000     0.002070000000    -0.0424785  
C95      C      0.993550000000     0.555090000000     0.056550000000    -0.0102411  
C96      C      0.074160000000     0.531510000000     0.999950000000     0.0946654  
H1       H      0.950760000000     0.041540000000     0.524380000000     0.0401786  
H2       H      0.898470000000     0.967720000000     0.557860000000     0.0488372  
H3       H      0.031620000000     0.008330000000     0.464940000000     0.0201498  
H4       H      0.033210000000     0.913860000000     0.461180000000     0.0604085  
H5       H      0.955360000000     0.037360000000     0.598570000000     0.0480542  
H6       H      0.955860000000     0.943000000000     0.595060000000     0.0408833  
H7       H      0.038700000000     0.909990000000     0.535500000000     0.0483212  
H8       H      0.123030000000     0.018470000000     0.487930000000     0.10118    
H9       H      0.122360000000     0.965000000000     0.532790000000     0.103161   
H10      H      0.798020000000     0.662300000000     0.492510000000     0.0396311  
H11      H      0.844400000000     0.734010000000     0.539180000000     0.0488924  
H12      H      0.714880000000     0.694340000000     0.445940000000     0.0208391  
H13      H      0.698150000000     0.787040000000     0.460760000000     0.0601986  
H14      H      0.799050000000     0.651610000000     0.566150000000     0.0479107  
H15      H      0.787270000000     0.744520000000     0.583720000000     0.0420194  
H16      H      0.695800000000     0.777180000000     0.534690000000     0.0495793  
H17      H      0.626940000000     0.664000000000     0.474070000000     0.0995985  
H18      H      0.618520000000     0.718920000000     0.515690000000     0.103607   
H19      H      0.290070000000     0.158360000000     0.511980000000     0.0392878  
H20      H      0.340970000000     0.232500000000     0.546420000000     0.0485974  
H21      H      0.209380000000     0.189560000000     0.456520000000     0.0200188  
H22      H      0.201790000000     0.283850000000     0.455090000000     0.0602344  
H23      H      0.287860000000     0.159560000000     0.586420000000     0.0481234  
H24      H      0.284460000000     0.253980000000     0.587100000000     0.0415631  
H25      H      0.196640000000     0.285780000000     0.529540000000     0.0486642  
H26      H      0.118700000000     0.172580000000     0.482170000000     0.100592   
H27      H      0.115670000000     0.228760000000     0.522820000000     0.103383   
H28      H      0.460570000000     0.529110000000     0.533260000000     0.0405338  
H29      H      0.415900000000     0.450040000000     0.564410000000     0.0489785  
H30      H      0.537990000000     0.504840000000     0.463260000000     0.0199583  
H31      H      0.543650000000     0.411260000000     0.450930000000     0.0596185  
H32      H      0.472590000000     0.519380000000     0.605970000000     0.0486386  
H33      H      0.477790000000     0.425930000000     0.593520000000     0.0402521  
H34      H      0.556080000000     0.402100000000     0.523810000000     0.0473454  
H35      H      0.630320000000     0.517660000000     0.478100000000     0.100995   
H36      H      0.636150000000     0.462190000000     0.519670000000     0.101172   
H37      H      0.770050000000     0.973590000000     0.206080000000     0.0404035  
H38      H      0.733740000000     0.903830000000     0.263450000000     0.0485489  
H39      H      0.802480000000     0.051460000000     0.270050000000     0.0204043  
H40      H      0.789140000000     0.028570000000     0.366820000000     0.059744   
H41      H      0.699040000000     0.966500000000     0.194380000000     0.0485659  
H42      H      0.683460000000     0.946320000000     0.292070000000     0.0411333  
H43      H      0.717620000000     0.022280000000     0.357060000000     0.0483018  
H44      H      0.764260000000     0.133360000000     0.276170000000     0.10421    
H45      H      0.708540000000     0.111590000000     0.314340000000     0.0995245  
H46      H      0.532600000000     0.207940000000     0.324510000000     0.0391617  
H47      H      0.434730000000     0.198120000000     0.330830000000     0.0478801  
H48      H      0.556050000000     0.293700000000     0.268600000000     0.0206402  
H49      H      0.473140000000     0.337430000000     0.241600000000     0.0600819  
H50      H      0.511120000000     0.152590000000     0.285510000000     0.0477968  
H51      H      0.428810000000     0.196690000000     0.256410000000     0.0408688  
H52      H      0.451470000000     0.282360000000     0.201940000000     0.0476803  
H53      H      0.596980000000     0.298580000000     0.181720000000     0.102521   
H54      H      0.538230000000     0.280250000000     0.146370000000     0.101198   
H55      H      0.324300000000     0.021450000000     0.748900000000     0.0391458  
H56      H      0.254290000000     0.073000000000     0.794310000000     0.0476467  
H57      H      0.281270000000     0.942860000000     0.701510000000     0.0195664  
H58      H      0.183590000000     0.938880000000     0.717140000000     0.0589687  
H59      H      0.334290000000     0.020830000000     0.822620000000     0.0473161  
H60      H      0.236850000000     0.019730000000     0.838850000000     0.0400647  
H61      H      0.193730000000     0.936720000000     0.791050000000     0.047628   
H62      H      0.299470000000     0.856100000000     0.726730000000     0.100829   
H63      H      0.249300000000     0.856690000000     0.778000000000     0.103215   
H64      H      0.451060000000     0.700690000000     0.749000000000     0.0391028  
H65      H      0.513050000000     0.636830000000     0.787930000000     0.0481739  
H66      H      0.505330000000     0.776170000000     0.703220000000     0.0192053  
H67      H      0.602020000000     0.761220000000     0.712480000000     0.0593911  
H68      H      0.444920000000     0.699240000000     0.823100000000     0.0483789  
H69      H      0.541750000000     0.684470000000     0.833690000000     0.0404811  
H70      H      0.597110000000     0.761100000000     0.786910000000     0.0474251  
H71      H      0.507070000000     0.862180000000     0.733280000000     0.101091   
H72      H      0.552740000000     0.848990000000     0.786970000000     0.100968   
H73      H      0.484790000000     0.959860000000     0.075640000000     0.0396306  
H74      H      0.470520000000     0.053500000000     0.076810000000     0.0476966  
H75      H      0.572260000000     0.938110000000     0.021110000000     0.0210155  
H76      H      0.615120000000     0.016750000000     0.986280000000     0.0599937  
H77      H      0.425000000000     0.976000000000     0.037590000000     0.0481823  
H78      H      0.466690000000     0.055210000000     0.002260000000     0.0409204  
H79      H      0.556200000000     0.032830000000     0.946410000000     0.0474101  
H80      H      0.576000000000     0.892040000000     0.937160000000     0.101122   
H81      H      0.560010000000     0.946860000000     0.897620000000     0.100172   
H82      H      0.018530000000     0.713810000000     0.343020000000     0.0394425  
H83      H      0.921710000000     0.706680000000     0.323220000000     0.0482921  
H84      H      0.054700000000     0.799570000000     0.302920000000     0.0218541  
H85      H      0.983950000000     0.848510000000     0.254550000000     0.0603518  
H86      H      0.006170000000     0.660640000000     0.296880000000     0.0480034  
H87      H      0.934470000000     0.708920000000     0.249750000000     0.0410784  
H88      H      0.972560000000     0.795150000000     0.208050000000     0.0471658  
H89      H      0.119530000000     0.804170000000     0.230790000000     0.100936   
H90      H      0.069500000000     0.801110000000     0.179470000000     0.102916   
H91      H      0.226170000000     0.813910000000     0.059100000000     0.0387421  
H92      H      0.231640000000     0.803040000000     0.958450000000     0.0471458  
H93      H      0.310940000000     0.779210000000     0.106400000000     0.0196986  
H94      H      0.374840000000     0.746080000000     0.038470000000     0.059468   
H95      H      0.175370000000     0.769710000000     0.035640000000     0.0476575  
H96      H      0.236700000000     0.733980000000     0.965730000000     0.0407319  
H97      H      0.327540000000     0.698030000000     0.015270000000     0.048147   
H98      H      0.313700000000     0.707640000000     0.166850000000     0.101911   
H99      H      0.317850000000     0.663530000000     0.111790000000     0.099332   
H100     H      0.278530000000     0.482760000000     0.218150000000     0.0395358  
H101     H      0.244040000000     0.406890000000     0.267190000000     0.0485781  
H102     H      0.307330000000     0.556120000000     0.290950000000     0.0195053  
H103     H      0.294940000000     0.522730000000     0.383970000000     0.0593914  
H104     H      0.207880000000     0.474580000000     0.205000000000     0.0470022  
H105     H      0.192270000000     0.445010000000     0.299840000000     0.0409123  
H106     H      0.223710000000     0.514980000000     0.373520000000     0.0481931  
H107     H      0.265520000000     0.635010000000     0.306470000000     0.102118   
H108     H      0.209710000000     0.607170000000     0.339570000000     0.099039   
H109     H      0.994430000000     0.263360000000     0.723320000000     0.0399841  
H110     H      0.038300000000     0.328160000000     0.782280000000     0.0490978  
H111     H      0.955610000000     0.186970000000     0.784770000000     0.020173   
H112     H      0.971680000000     0.205940000000     0.882260000000     0.0594651  
H113     H      0.065610000000     0.264890000000     0.710580000000     0.0478353  
H114     H      0.084050000000     0.280270000000     0.809060000000     0.040894   
H115     H      0.043440000000     0.206480000000     0.871830000000     0.0478681  
H116     H      0.986610000000     0.101970000000     0.787470000000     0.104173   
H117     H      0.043580000000     0.117870000000     0.826940000000     0.0985317  
H118     H      0.798650000000     0.290110000000     0.098800000000     0.038588   
H119     H      0.804420000000     0.195620000000     0.095770000000     0.0482778  
H120     H      0.718700000000     0.321340000000     0.042230000000     0.0200626  
H121     H      0.669590000000     0.249750000000     0.999390000000     0.0594472  
H122     H      0.859410000000     0.270540000000     0.064310000000     0.0488899  
H123     H      0.813220000000     0.196740000000     0.021690000000     0.042531   
H124     H      0.728600000000     0.230410000000     0.961290000000     0.0481369  
H125     H      0.726840000000     0.372960000000     0.961150000000     0.10115    
H126     H      0.732230000000     0.318190000000     0.918660000000     0.102738   
H127     H      0.747760000000     0.520390000000     0.834060000000     0.0387101  
H128     H      0.845930000000     0.530190000000     0.831600000000     0.0475732  
H129     H      0.720020000000     0.432610000000     0.785620000000     0.0200258  
H130     H      0.800410000000     0.387070000000     0.753210000000     0.0591635  
H131     H      0.766060000000     0.573920000000     0.790710000000     0.0478199  
H132     H      0.845750000000     0.527850000000     0.756930000000     0.0410027  
H133     H      0.818640000000     0.440570000000     0.709360000000     0.047292   
H134     H      0.671650000000     0.424210000000     0.702920000000     0.101418   
H135     H      0.727720000000     0.438960000000     0.661560000000     0.0987783  
H136     H      0.973670000000     0.573630000000     0.020220000000     0.0391674  
H137     H      0.931190000000     0.496420000000     0.059240000000     0.0478382  
H138     H      0.054530000000     0.548290000000     0.962440000000     0.0205211  
H139     H      0.071000000000     0.454830000000     0.963160000000     0.0602714  
H140     H      0.978580000000     0.574980000000     0.094470000000     0.0478147  
H141     H      0.991200000000     0.481050000000     0.097720000000     0.0411104  
H142     H      0.079060000000     0.455410000000     0.037360000000     0.0482358  
H143     H      0.144150000000     0.573860000000     0.984330000000     0.10154    
H144     H      0.154130000000     0.518630000000     0.025210000000     0.102396   
In1      In     0.907200000000     0.375360000000     0.914090000000     2.40089    
In2      In     0.141620000000     0.638900000000     0.163700000000     2.40797    
In3      In     0.398040000000     0.862290000000     0.889490000000     2.40926    
In4      In     0.633420000000     0.127830000000     0.140140000000     2.39727    
In5      In     0.368810000000     0.355350000000     0.404140000000     2.39945    
In6      In     0.639760000000     0.593500000000     0.648670000000     2.41691    
In7      In     0.860780000000     0.862720000000     0.402350000000     2.4105     
In8      In     0.122690000000     0.101110000000     0.655720000000     2.41566    
N1       N      0.027150000000     0.015920000000     0.552480000000    -0.180897   
N2       N      0.962900000000     0.936460000000     0.507950000000    -0.163405   
N3       N      0.105280000000     0.982990000000     0.498050000000    -0.197385   
N4       N      0.722060000000     0.674130000000     0.530860000000    -0.181276   
N5       N      0.773280000000     0.766100000000     0.500260000000    -0.164014   
N6       N      0.638650000000     0.702180000000     0.481990000000    -0.197341   
N7       N      0.214010000000     0.180860000000     0.543890000000    -0.180945   
N8       N      0.273720000000     0.264060000000     0.500760000000    -0.163762   
N9       N      0.134090000000     0.209640000000     0.489550000000    -0.197425   
N10      N      0.540620000000     0.506050000000     0.551250000000    -0.180411   
N11      N      0.476890000000     0.426410000000     0.505840000000    -0.163843   
N12      N      0.615300000000     0.480900000000     0.487660000000    -0.197104   
N13      N      0.723860000000     0.034460000000     0.240700000000    -0.180324   
N14      N      0.762490000000     0.962660000000     0.319550000000    -0.163845   
N15      N      0.749200000000     0.106090000000     0.304260000000    -0.19745    
N16      N      0.537110000000     0.219110000000     0.237550000000    -0.180687   
N17      N      0.449340000000     0.270170000000     0.288350000000    -0.16362    
N18      N      0.554810000000     0.298020000000     0.181490000000    -0.197044   
N19      N      0.304300000000     0.949680000000     0.785990000000    -0.181859   
N20      N      0.213890000000     0.008640000000     0.755220000000    -0.164634   
N21      N      0.263390000000     0.872520000000     0.740730000000    -0.197668   
N22      N      0.484600000000     0.766650000000     0.788040000000    -0.181003   
N23      N      0.562060000000     0.695580000000     0.749390000000    -0.163957   
N24      N      0.538310000000     0.838550000000     0.747690000000    -0.197512   
N25      N      0.494070000000     0.951810000000     0.988660000000    -0.180627   
N26      N      0.544990000000     0.040240000000     0.032790000000    -0.164103   
N27      N      0.576900000000     0.932410000000     0.934310000000    -0.19707    
N28      N      0.043610000000     0.728530000000     0.260410000000    -0.181141   
N29      N      0.948340000000     0.780130000000     0.290460000000    -0.163735   
N30      N      0.079110000000     0.810680000000     0.220510000000    -0.19696    
N31      N      0.242880000000     0.736020000000     0.080200000000    -0.180965   
N32      N      0.306300000000     0.774040000000     0.992380000000    -0.163845   
N33      N      0.325250000000     0.701250000000     0.125640000000    -0.197153   
N34      N      0.229980000000     0.538630000000     0.258550000000    -0.181236   
N35      N      0.270610000000     0.460880000000     0.329630000000    -0.16358    
N36      N      0.250890000000     0.604360000000     0.330500000000    -0.197262   
N37      N      0.035400000000     0.197980000000     0.755380000000    -0.180866   
N38      N      0.003780000000     0.270510000000     0.836430000000    -0.163555   
N39      N      0.003680000000     0.126990000000     0.816730000000    -0.197349   
N40      N      0.796330000000     0.302020000000     0.011810000000    -0.180367   
N41      N      0.734540000000     0.217000000000     0.047450000000    -0.163557   
N42      N      0.718390000000     0.333580000000     0.956250000000    -0.197377   
N43      N      0.736640000000     0.505280000000     0.748410000000    -0.181977   
N44      N      0.827380000000     0.456270000000     0.794740000000    -0.164489   
N45      N      0.713670000000     0.423710000000     0.699130000000    -0.197189   
N46      N      0.052620000000     0.558680000000     0.049720000000    -0.181143   
N47      N      0.999210000000     0.469670000000     0.011240000000    -0.164256   
N48      N      0.132660000000     0.535690000000     0.992590000000    -0.197523   
O1       O      0.820970000000     0.353760000000     0.937240000000    -0.512443   
O2       O      0.883610000000     0.324440000000     0.987890000000    -0.498164   
O3       O      0.878440000000     0.450960000000     0.874620000000    -0.506315   
O4       O      0.918020000000     0.433070000000     0.985570000000    -0.501544   
O5       O      0.970470000000     0.352820000000     0.849710000000    -0.498557   
O6       O      0.987530000000     0.411400000000     0.939810000000    -0.504284   
O7       O      0.857190000000     0.380500000000     0.834770000000    -0.50234    
O8       O      0.939270000000     0.293140000000     0.901110000000    -0.499288   
O9       O      0.109630000000     0.716590000000     0.193490000000    -0.515509   
O10      O      0.077290000000     0.649590000000     0.231120000000    -0.502508   
O11      O      0.173650000000     0.558460000000     0.185110000000    -0.512869   
O12      O      0.132920000000     0.592260000000     0.083770000000    -0.511065   
O13      O      0.225070000000     0.671730000000     0.144980000000    -0.51383    
O14      O      0.062130000000     0.606610000000     0.130160000000    -0.506867   
O15      O      0.195030000000     0.619960000000     0.238480000000    -0.510875   
O16      O      0.159290000000     0.700370000000     0.098270000000    -0.503351   
O17      O      0.366150000000     0.939830000000     0.857060000000    -0.509336   
O18      O      0.337530000000     0.871600000000     0.818940000000    -0.513796   
O19      O      0.411550000000     0.918700000000     0.961370000000    -0.505321   
O20      O      0.388040000000     0.804880000000     0.960820000000    -0.50043    
O21      O      0.458750000000     0.847810000000     0.819850000000    -0.510425   
O22      O      0.317040000000     0.834280000000     0.922670000000    -0.506524   
O23      O      0.479930000000     0.894260000000     0.916000000000    -0.513288   
O24      O      0.424330000000     0.782560000000     0.859100000000    -0.506627   
O25      O      0.716830000000     0.159220000000     0.118090000000    -0.502203   
O26      O      0.650310000000     0.185340000000     0.070080000000    -0.497941   
O27      O      0.664660000000     0.048830000000     0.168130000000    -0.506759   
O28      O      0.573330000000     0.140310000000     0.211190000000    -0.503427   
O29      O      0.624850000000     0.075340000000     0.064260000000    -0.500263   
O30      O      0.597760000000     0.205910000000     0.165380000000    -0.511899   
O31      O      0.690270000000     0.114430000000     0.213390000000    -0.506355   
O32      O      0.553690000000     0.093480000000     0.109240000000    -0.503803   
O33      O      0.287420000000     0.321330000000     0.428840000000    -0.505039   
O34      O      0.356360000000     0.296380000000     0.473770000000    -0.497946   
O35      O      0.418690000000     0.347390000000     0.324730000000    -0.498259   
O36      O      0.308100000000     0.379560000000     0.337660000000    -0.497816   
O37      O      0.390910000000     0.400430000000     0.482490000000    -0.49656    
O38      O      0.334450000000     0.437060000000     0.394510000000    -0.501687   
O39      O      0.398990000000     0.278540000000     0.368470000000    -0.503634   
O40      O      0.453890000000     0.382590000000     0.425850000000    -0.504462   
O41      O      0.717640000000     0.619810000000     0.606910000000    -0.507632   
O42      O      0.643600000000     0.647480000000     0.574490000000    -0.512025   
O43      O      0.557420000000     0.558570000000     0.627240000000    -0.501293   
O44      O      0.671600000000     0.515790000000     0.680010000000    -0.519641   
O45      O      0.621880000000     0.674920000000     0.679740000000    -0.507018   
O46      O      0.703610000000     0.583370000000     0.716390000000    -0.510549   
O47      O      0.623810000000     0.539960000000     0.575810000000    -0.515535   
O48      O      0.578640000000     0.613000000000     0.716920000000    -0.500363   
O49      O      0.853260000000     0.801840000000     0.470420000000    -0.503014   
O50      O      0.781200000000     0.828020000000     0.431900000000    -0.506004   
O51      O      0.944620000000     0.888110000000     0.429820000000    -0.503388   
O52      O      0.918430000000     0.856770000000     0.328690000000    -0.500137   
O53      O      0.799100000000     0.881870000000     0.334870000000    -0.502359   
O54      O      0.887900000000     0.786800000000     0.362810000000    -0.504915   
O55      O      0.877930000000     0.912560000000     0.478690000000    -0.498083   
O56      O      0.826650000000     0.943500000000     0.385800000000    -0.503335   
O57      O      0.150140000000     0.022140000000     0.687140000000    -0.509838   
O58      O      0.185570000000     0.088570000000     0.724020000000    -0.503991   
O59      O      0.132400000000     0.153920000000     0.580940000000    -0.512425   
O60      O      0.040660000000     0.070390000000     0.627420000000    -0.505724   
O61      O      0.095990000000     0.181210000000     0.684730000000    -0.511443   
O62      O      0.109990000000     0.045670000000     0.583690000000    -0.512908   
O63      O      0.203540000000     0.129690000000     0.621910000000    -0.505125   
O64      O      0.063020000000     0.116490000000     0.726220000000    -0.511447   


