data_structure

_audit_creation_method RASPA-1.0
_audit_creation_date 2023-5-22
_audit_author_name 'Poobodin Mano'

_cell_length_a    16.9512
_cell_length_b    17.4845
_cell_length_c    17.2086
_cell_angle_alpha 90
_cell_angle_beta  90
_cell_angle_gamma 90
_cell_volume      5100.34

_symmetry_cell_setting          triclinic
_symmetry_space_group_name_Hall 'P 1'
_symmetry_space_group_name_H-M  'P 1'
_symmetry_Int_Tables_number     1

_symmetry_equiv_pos_as_xyz 'x,y,z'

loop_
_atom_site_label
_atom_site_type_symbol
_atom_site_fract_x
_atom_site_fract_y
_atom_site_fract_z
_atom_site_charge
C1       C      0.107320000000     0.857630000000     0.227460000000     0.399993   
C2       C      0.148330000000     0.911930000000     0.978290000000     0.402658   
C3       C      0.218640000000     0.695090000000     0.102500000000     0.39721    
C4       C      0.969330000000     0.751150000000     0.020630000000     0.415751   
C5       C      0.373670000000     0.714590000000     0.674620000000     0.398976   
C6       C      0.528700000000     0.753950000000     0.485060000000     0.412215   
C7       C      0.282670000000     0.847720000000     0.465990000000     0.4024     
C8       C      0.417600000000     0.957450000000     0.623150000000     0.404663   
C9       C      0.636470000000     0.804260000000     0.238680000000     0.401624   
C10      C      0.734020000000     0.010320000000     0.095220000000     0.402661   
C11      C      0.597370000000     0.846530000000     0.990430000000     0.405301   
C12      C      0.490270000000     0.985750000000     0.196140000000     0.408899   
C13      C      0.895500000000     0.253870000000     0.113360000000     0.398329   
C14      C      0.011400000000     0.435730000000     0.273970000000     0.404835   
C15      C      0.872740000000     0.513220000000     0.100100000000     0.395608   
C16      C      0.752160000000     0.353820000000     0.267750000000     0.405363   
C17      C      0.498480000000     0.495510000000     0.704340000000     0.411006   
C18      C      0.580130000000     0.351860000000     0.488480000000     0.401397   
C19      C      0.734840000000     0.498060000000     0.587650000000     0.404333   
C20      C      0.626400000000     0.302590000000     0.735660000000     0.401153   
C21      C      0.883380000000     0.982340000000     0.562460000000     0.3971     
C22      C      0.762760000000     0.840220000000     0.756370000000     0.404328   
C23      C      0.900910000000     0.734770000000     0.599700000000     0.400304   
C24      C      0.014530000000     0.927600000000     0.755840000000     0.406519   
C25      C      0.234270000000     0.178120000000     0.601320000000     0.398354   
C26      C      0.152590000000     0.395980000000     0.483190000000     0.404775   
C27      C      0.991810000000     0.210850000000     0.486400000000     0.420898   
C28      C      0.085300000000     0.319450000000     0.715790000000     0.399827   
C29      C      0.375090000000     0.453250000000     0.106240000000     0.408486   
C30      C      0.344360000000     0.210480000000     0.164800000000     0.405593   
C31      C      0.210940000000     0.332730000000     0.973650000000     0.398131   
C32      C      0.469280000000     0.259160000000     0.956010000000     0.414295   
C33      C      0.092360000000     0.275130000000     0.915060000000    -0.00919123 
C34      C      0.116060000000     0.417910000000     0.906790000000    -0.0277328  
C35      C      0.034950000000     0.292500000000     0.848140000000    -0.0115344  
C36      C      0.107980000000     0.415570000000     0.817770000000     0.0395116  
C37      C      0.839510000000     0.112140000000     0.534450000000    -0.0114304  
C38      C      0.942700000000     0.039920000000     0.446990000000    -0.0240411  
C39      C      0.851060000000     0.181070000000     0.480480000000    -0.00798702 
C40      C      0.939860000000     0.111270000000     0.395810000000     0.0390149  
C41      C      0.611910000000     0.237630000000     0.936790000000    -0.0130064  
C42      C      0.510540000000     0.184840000000     0.841770000000    -0.021228   
C43      C      0.662980000000     0.268800000000     0.869870000000    -0.00676211 
C44      C      0.582010000000     0.178640000000     0.787100000000     0.037316   
C45      C      0.860110000000     0.649070000000     0.493350000000    -0.0118632  
C46      C      0.927770000000     0.596490000000     0.611580000000    -0.0222364  
C47      C      0.785140000000     0.603630000000     0.509380000000    -0.00524352 
C48      C      0.877750000000     0.523750000000     0.595620000000     0.0299041  
C49      C      0.066780000000     0.530540000000     0.365510000000    -0.0135617  
C50      C      0.153290000000     0.427060000000     0.300480000000    -0.0219231  
C51      C      0.118040000000     0.525580000000     0.439910000000    -0.0108987  
C52      C      0.212350000000     0.451190000000     0.363140000000     0.0349131  
C53      C      0.608530000000     0.250170000000     0.394740000000    -0.010581   
C54      C      0.547180000000     0.371520000000     0.349880000000    -0.0236929  
C55      C      0.688420000000     0.268370000000     0.359690000000    -0.00418661 
C56      C      0.607990000000     0.368290000000     0.281960000000     0.028761   
C57      C      0.349470000000     0.019010000000     0.189430000000    -0.00888083 
C58      C      0.435730000000     0.070960000000     0.297910000000    -0.0250159  
C59      C      0.296970000000     0.086300000000     0.213610000000    -0.00986641 
C60      C      0.410060000000     0.153680000000     0.279190000000     0.0325993  
C61      C      0.629400000000     0.741900000000     0.899850000000    -0.00954259 
C62      C      0.560060000000     0.855770000000     0.851880000000    -0.0240449  
C63      C      0.704890000000     0.759770000000     0.855720000000    -0.00823599 
C64      C      0.628000000000     0.875580000000     0.795720000000     0.0310088  
C65      C      0.849450000000     0.172000000000     0.006090000000    -0.013465   
C66      C      0.921890000000     0.115050000000     0.120070000000    -0.0231011  
C67      C      0.776430000000     0.123940000000     0.023710000000    -0.00591937 
C68      C      0.876180000000     0.041240000000     0.097970000000     0.0314659  
C69      C      0.285320000000     0.073720000000     0.681650000000    -0.00906393 
C70      C      0.364210000000     0.127270000000     0.564940000000    -0.0245056  
C71      C      0.364310000000     0.048570000000     0.716440000000    -0.0118124  
C72      C      0.438470000000     0.098610000000     0.606280000000     0.0351736  
C73      C      0.662830000000     0.773900000000     0.434660000000    -0.010669   
C74      C      0.580510000000     0.661470000000     0.389010000000    -0.0248473  
C75      C      0.704930000000     0.759460000000     0.357050000000    -0.00962157 
C76      C      0.586870000000     0.688100000000     0.303800000000     0.0368666  
C77      C      0.405290000000     0.661300000000     0.803170000000    -0.0103039  
C78      C      0.311620000000     0.592900000000     0.715830000000    -0.0222433  
C79      C      0.470570000000     0.601860000000     0.793050000000    -0.0062988  
C80      C      0.358630000000     0.519910000000     0.738200000000     0.03082    
C81      C      0.260950000000     0.582330000000     0.175350000000    -0.00958152 
C82      C      0.339550000000     0.631610000000     0.056510000000    -0.0253934  
C83      C      0.337930000000     0.547010000000     0.204490000000    -0.0103051  
C84      C      0.411900000000     0.592250000000     0.092180000000     0.0378541  
C85      C      0.835240000000     0.647630000000     0.097600000000    -0.0100639  
C86      C      0.912800000000     0.582580000000     0.983210000000    -0.022298   
C87      C      0.831890000000     0.720000000000     0.047350000000    -0.0105484  
C88      C      0.897030000000     0.656790000000     0.938940000000     0.0350162  
C89      C      0.066760000000     0.029990000000     0.840460000000    -0.0147175  
C90      C      0.154100000000     0.918480000000     0.791090000000    -0.0214675  
C91      C      0.117440000000     0.034470000000     0.915300000000    -0.0116833  
C92      C      0.211710000000     0.948140000000     0.852470000000     0.0349546  
C93      C      0.155960000000     0.951030000000     0.322620000000    -0.0132328  
C94      C      0.086010000000     0.832700000000     0.367240000000    -0.0232185  
C95      C      0.233040000000     0.926500000000     0.360100000000    -0.00430004 
C96      C      0.140510000000     0.839270000000     0.439640000000     0.0314395  
H1       H      0.013700000000     0.237900000000     0.822470000000     0.0478848  
H2       H      0.130610000000     0.226330000000     0.897700000000     0.0470066  
H3       H      0.167730000000     0.423370000000     0.792450000000     0.039878   
H4       H      0.157390000000     0.464380000000     0.923800000000     0.0540561  
H5       H      0.982860000000     0.323030000000     0.872270000000     0.0436145  
H6       H      0.058710000000     0.256800000000     0.967300000000     0.0405549  
H7       H      0.057750000000     0.431180000000     0.933300000000     0.0488228  
H8       H      0.075040000000     0.517430000000     0.713320000000     0.0459652  
H9       H      0.806570000000     0.177170000000     0.433370000000     0.0366487  
H10      H      0.775640000000     0.097880000000     0.537910000000     0.0445835  
H11      H      0.887370000000     0.105530000000     0.357320000000     0.0300377  
H12      H      0.932240000000     0.988000000000     0.411020000000     0.0492478  
H13      H      0.840400000000     0.235330000000     0.512620000000     0.0488323  
H14      H      0.857290000000     0.129730000000     0.594120000000     0.0495452  
H15      H      0.002980000000     0.034350000000     0.471790000000     0.0531663  
H16      H      0.022030000000     0.187930000000     0.295080000000     0.0493762  
H17      H      0.668860000000     0.331770000000     0.877210000000     0.0510699  
H18      H      0.618980000000     0.275200000000     0.988470000000     0.0496266  
H19      H      0.560100000000     0.169070000000     0.727180000000     0.0366979  
H20      H      0.461620000000     0.212960000000     0.809420000000     0.0502207  
H21      H      0.723260000000     0.244180000000     0.874020000000     0.0375753  
H22      H      0.633810000000     0.180280000000     0.953570000000     0.0431406  
H23      H      0.488540000000     0.127280000000     0.858750000000     0.0420961  
H24      H      0.680960000000     0.073650000000     0.744410000000     0.0444403  
H25      H      0.739010000000     0.642840000000     0.532050000000     0.0482276  
H26      H      0.845530000000     0.702650000000     0.461720000000     0.0446342  
H27      H      0.874070000000     0.491360000000     0.651190000000     0.0419007  
H28      H      0.925660000000     0.608250000000     0.675120000000     0.0535983  
H29      H      0.762410000000     0.579260000000     0.454050000000     0.0392445  
H30      H      0.899360000000     0.614560000000     0.455330000000     0.0403889  
H31      H      0.990980000000     0.586590000000     0.597640000000     0.0437388  
H32      H      0.948760000000     0.398250000000     0.568400000000     0.0394348  
H33      H      0.156050000000     0.577370000000     0.443100000000     0.0379876  
H34      H      0.085200000000     0.581870000000     0.331930000000     0.0393436  
H35      H      0.234940000000     0.508680000000     0.346520000000     0.0247224  
H36      H      0.175450000000     0.443270000000     0.242050000000     0.0439943  
H37      H      0.080010000000     0.526760000000     0.492370000000     0.0493734  
H38      H      0.004410000000     0.540330000000     0.382660000000     0.0490392  
H39      H      0.146880000000     0.363670000000     0.300680000000     0.0570172  
H40      H      0.361940000000     0.430920000000     0.388700000000     0.0348373  
H41      H      0.729710000000     0.284120000000     0.407270000000     0.0479635  
H42      H      0.615620000000     0.211730000000     0.445760000000     0.0445097  
H43      H      0.618450000000     0.428060000000     0.262270000000     0.0402148  
H44      H      0.539880000000     0.432150000000     0.368160000000     0.0510373  
H45      H      0.712510000000     0.216630000000     0.330480000000     0.0375012  
H46      H      0.572150000000     0.220040000000     0.350570000000     0.0372183  
H47      H      0.487990000000     0.352180000000     0.330200000000     0.0465053  
H48      H      0.543340000000     0.371090000000     0.146000000000     0.0368881  
H49      H      0.247710000000     0.093330000000     0.171540000000     0.0540903  
H50      H      0.356790000000     0.020390000000     0.125160000000     0.0519591  
H51      H      0.462610000000     0.185380000000     0.257880000000     0.0414787  
H52      H      0.496930000000     0.071150000000     0.321220000000     0.0517088  
H53      H      0.271080000000     0.073840000000     0.271480000000     0.037531   
H54      H      0.320290000000     0.964030000000     0.203820000000     0.0410826  
H55      H      0.396980000000     0.046690000000     0.343940000000     0.0462737  
H56      H      0.438290000000     0.215660000000     0.413230000000     0.034179   
H57      H      0.751220000000     0.776000000000     0.898210000000     0.045091   
H58      H      0.642860000000     0.707300000000     0.952440000000     0.0434434  
H59      H      0.649430000000     0.933430000000     0.811630000000     0.0361862  
H60      H      0.528520000000     0.908950000000     0.869080000000     0.052554   
H61      H      0.725920000000     0.707010000000     0.826050000000     0.0427399  
H62      H      0.590480000000     0.707310000000     0.861660000000     0.036146   
H63      H      0.516480000000     0.818750000000     0.821860000000     0.0498905  
H64      H      0.596510000000     0.956180000000     0.672700000000     0.0382143  
H65      H      0.731620000000     0.160810000000     0.052460000000     0.0448078  
H66      H      0.831330000000     0.226610000000     0.978240000000     0.0457659  
H67      H      0.877750000000     0.002660000000     0.149380000000     0.0420545  
H68      H      0.915930000000     0.123150000000     0.183920000000     0.0511297  
H69      H      0.750450000000     0.103120000000     0.968280000000     0.0383181  
H70      H      0.887390000000     0.141010000000     0.963910000000     0.0390611  
H71      H      0.986120000000     0.108350000000     0.108820000000     0.0475218  
H72      H      0.882510000000     0.925430000000     0.004000000000     0.0409157  
H73      H      0.388500000000     0.096410000000     0.751660000000     0.0353777  
H74      H      0.247750000000     0.097210000000     0.728980000000     0.0437428  
H75      H      0.456530000000     0.145410000000     0.646140000000     0.0318306  
H76      H      0.376580000000     0.184680000000     0.539990000000     0.0533787  
H77      H      0.355810000000     0.999180000000     0.755950000000     0.0435505  
H78      H      0.254620000000     0.022690000000     0.657820000000     0.0392385  
H79      H      0.349810000000     0.088140000000     0.515960000000     0.048489   
H80      H      0.588530000000     0.104260000000     0.576800000000     0.0374483  
H81      H      0.747320000000     0.806530000000     0.345120000000     0.0521459  
H82      H      0.648960000000     0.836010000000     0.438750000000     0.0528686  
H83      H      0.527340000000     0.707830000000     0.285260000000     0.0405744  
H84      H      0.523690000000     0.630970000000     0.398200000000     0.053664   
H85      H      0.739290000000     0.705510000000     0.361740000000     0.0373756  
H86      H      0.702650000000     0.760490000000     0.483920000000     0.0421796  
H87      H      0.628680000000     0.620210000000     0.402050000000     0.0476372  
H88      H      0.608170000000     0.631980000000     0.166050000000     0.0445666  
H89      H      0.522350000000     0.630530000000     0.766000000000     0.0498379  
H90      H      0.430800000000     0.718070000000     0.817000000000     0.0465155  
H91      H      0.346260000000     0.475410000000     0.693670000000     0.0425108  
H92      H      0.294850000000     0.588840000000     0.653480000000     0.0578544  
H93      H      0.489720000000     0.580000000000     0.850520000000     0.0393533  
H94      H      0.367110000000     0.644350000000     0.852840000000     0.0418957  
H95      H      0.255420000000     0.596510000000     0.748970000000     0.0451869  
H96      H      0.358920000000     0.411500000000     0.841210000000     0.0330448  
H97      H      0.370150000000     0.590210000000     0.239860000000     0.0367998  
H98      H      0.228910000000     0.607290000000     0.225800000000     0.0439686  
H99      H      0.439090000000     0.634280000000     0.132760000000     0.0313134  
H100     H      0.357530000000     0.688040000000     0.032390000000     0.0542897  
H101     H      0.325360000000     0.497530000000     0.242600000000     0.0436993  
H102     H      0.223150000000     0.536320000000     0.150860000000     0.0455915  
H103     H      0.317430000000     0.596540000000     0.007160000000     0.0531144  
H104     H      0.549780000000     0.538540000000     0.056200000000     0.0393983  
H105     H      0.776250000000     0.718520000000     0.013550000000     0.0395336  
H106     H      0.774820000000     0.634210000000     0.118960000000     0.0478744  
H107     H      0.836700000000     0.652370000000     0.913850000000     0.0297273  
H108     H      0.896130000000     0.532870000000     0.946280000000     0.049404   
H109     H      0.830000000000     0.771790000000     0.084900000000     0.0499201  
H110     H      0.871130000000     0.660530000000     0.150150000000     0.0475011  
H111     H      0.977100000000     0.577070000000     0.995110000000     0.0538246  
H112     H      0.964960000000     0.744930000000     0.837090000000     0.040581   
H113     H      0.157070000000     0.084990000000     0.910980000000     0.0400056  
H114     H      0.083840000000     0.077910000000     0.801410000000     0.0426979  
H115     H      0.237210000000     0.002110000000     0.829590000000     0.0246818  
H116     H      0.179060000000     0.927040000000     0.731990000000     0.0418846  
H117     H      0.079140000000     0.044420000000     0.966650000000     0.0507566  
H118     H      0.004000000000     0.039960000000     0.856320000000     0.048419   
H119     H      0.145690000000     0.855750000000     0.798730000000     0.0582819  
H120     H      0.357820000000     0.924710000000     0.892250000000     0.0354558  
H121     H      0.272970000000     0.902550000000     0.315070000000     0.0455949  
H122     H      0.167340000000     0.987820000000     0.271310000000     0.0459917  
H123     H      0.144210000000     0.781270000000     0.466090000000     0.0396754  
H124     H      0.084870000000     0.771690000000     0.348800000000     0.0522088  
H125     H      0.262990000000     0.977440000000     0.385280000000     0.0382013  
H126     H      0.121840000000     0.985030000000     0.365490000000     0.0426108  
H127     H      0.024030000000     0.847520000000     0.382170000000     0.0483547  
H128     H      0.132080000000     0.883960000000     0.583030000000     0.042005   
In1      In     0.106860000000     0.803300000000     0.081020000000     2.40727    
In2      In     0.404390000000     0.816000000000     0.561060000000     2.4107     
In3      In     0.614590000000     0.913440000000     0.130490000000     2.40631    
In4      In     0.885510000000     0.388260000000     0.189840000000     2.41204    
In5      In     0.608920000000     0.413230000000     0.628810000000     2.43265    
In6      In     0.892350000000     0.871820000000     0.670800000000     2.40225    
In7      In     0.112730000000     0.272930000000     0.569060000000     2.39518    
In8      In     0.350900000000     0.312720000000     0.047260000000     2.38988    
N1       N      0.074170000000     0.342360000000     0.790870000000    -0.1678     
N2       N      0.141470000000     0.342170000000     0.934620000000    -0.162565   
N3       N      0.930370000000     0.177240000000     0.447620000000    -0.173232   
N4       N      0.885100000000     0.042660000000     0.512160000000    -0.163517   
N5       N      0.628790000000     0.249290000000     0.793490000000    -0.168437   
N6       N      0.528970000000     0.229600000000     0.912200000000    -0.165617   
N7       N      0.797920000000     0.541760000000     0.566330000000    -0.169045   
N8       N      0.899600000000     0.663380000000     0.567530000000    -0.162671   
N9       N      0.168640000000     0.457490000000     0.436630000000    -0.167336   
N10      N      0.075150000000     0.462660000000     0.314030000000    -0.165205   
N11      N      0.684170000000     0.332430000000     0.304070000000    -0.17032    
N12      N      0.572060000000     0.323090000000     0.415250000000    -0.163562   
N13      N      0.346780000000     0.154720000000     0.220160000000    -0.168201   
N14      N      0.427320000000     0.022980000000     0.227860000000    -0.164824   
N15      N      0.696950000000     0.822840000000     0.798820000000    -0.170278   
N16      N      0.591020000000     0.814080000000     0.918740000000    -0.165567   
N17      N      0.794140000000     0.058250000000     0.074670000000    -0.171149   
N18      N      0.892780000000     0.183500000000     0.078820000000    -0.162916   
N19      N      0.417350000000     0.030440000000     0.652030000000    -0.172071   
N20      N      0.295400000000     0.130190000000     0.618150000000    -0.165686   
N21      N      0.645060000000     0.750570000000     0.295670000000    -0.168705   
N22      N      0.589820000000     0.728100000000     0.440720000000    -0.165141   
N23      N      0.443860000000     0.537260000000     0.744080000000    -0.170749   
N24      N      0.358810000000     0.662060000000     0.731450000000    -0.159644   
N25      N      0.384310000000     0.525260000000     0.136390000000    -0.170793   
N26      N      0.274650000000     0.640230000000     0.113900000000    -0.163729   
N27      N      0.900050000000     0.719670000000     0.995360000000    -0.174167   
N28      N      0.869690000000     0.579390000000     0.058250000000    -0.163863   
N29      N      0.165970000000     0.965400000000     0.922950000000    -0.1668     
N30      N      0.076540000000     0.957170000000     0.796720000000    -0.165821   
N31      N      0.220280000000     0.868140000000     0.420690000000    -0.171567   
N32      N      0.112260000000     0.881820000000     0.302690000000    -0.162365   
O1       O      0.971990000000     0.800990000000     0.073340000000    -0.510626   
O2       O      0.035810000000     0.727740000000     0.998540000000    -0.516965   
O3       O      0.102730000000     0.925570000000     0.034790000000    -0.4954     
O4       O      0.142110000000     0.891430000000     0.172260000000    -0.500316   
O5       O      0.154440000000     0.695910000000     0.139440000000    -0.50179    
O6       O      0.070960000000     0.797590000000     0.208360000000    -0.492488   
O7       O      0.172790000000     0.843990000000     0.974630000000    -0.489849   
O8       O      0.226390000000     0.748320000000     0.053770000000    -0.481436   
O9       O      0.444820000000     0.940460000000     0.557320000000    -0.492519   
O10      O      0.385140000000     0.902460000000     0.658350000000    -0.503496   
O11      O      0.535500000000     0.809840000000     0.530740000000    -0.507745   
O12      O      0.338250000000     0.713840000000     0.610080000000    -0.488218   
O13      O      0.351930000000     0.870090000000     0.452380000000    -0.505631   
O14      O      0.425800000000     0.765990000000     0.681580000000    -0.498343   
O15      O      0.459910000000     0.727220000000     0.479930000000    -0.511626   
O16      O      0.275020000000     0.807980000000     0.526560000000    -0.496367   
O17      O      0.559670000000     0.992830000000     0.221570000000    -0.507967   
O18      O      0.483640000000     0.942560000000     0.137870000000    -0.50167    
O19      O      0.745040000000     0.948130000000     0.130760000000    -0.494782   
O20      O      0.680250000000     0.862580000000     0.233830000000    -0.492473   
O21      O      0.635710000000     0.815860000000     0.045000000000    -0.507517   
O22      O      0.582360000000     0.800590000000     0.188310000000    -0.501522   
O23      O      0.663010000000     0.024150000000     0.078550000000    -0.505943   
O24      O      0.567430000000     0.910580000000     0.006510000000    -0.497218   
O25      O      0.752810000000     0.397660000000     0.209700000000    -0.496779   
O26      O      0.818980000000     0.328820000000     0.287870000000    -0.507876   
O27      O      0.017460000000     0.387810000000     0.219470000000    -0.503715   
O28      O      0.926330000000     0.264390000000     0.179290000000    -0.498939   
O29      O      0.841040000000     0.507480000000     0.166160000000    -0.498495   
O30      O      0.862970000000     0.312320000000     0.084250000000    -0.499992   
O31      O      0.941980000000     0.457780000000     0.287480000000    -0.506622   
O32      O      0.910400000000     0.454630000000     0.077740000000    -0.495014   
O33      O      0.582310000000     0.295460000000     0.676980000000    -0.503892   
O34      O      0.664080000000     0.364840000000     0.739110000000    -0.495104   
O35      O      0.551140000000     0.415360000000     0.508880000000    -0.496809   
O36      O      0.480530000000     0.441370000000     0.659220000000    -0.506369   
O37      O      0.741170000000     0.439110000000     0.629670000000    -0.496794   
O38      O      0.571280000000     0.508560000000     0.709900000000    -0.518126   
O39      O      0.621640000000     0.319000000000     0.539470000000    -0.507034   
O40      O      0.665510000000     0.513540000000     0.566260000000    -0.509035   
O41      O      0.945490000000     0.953640000000     0.760820000000    -0.511829   
O42      O      0.021950000000     0.872460000000     0.709260000000    -0.504738   
O43      O      0.764450000000     0.892980000000     0.706550000000    -0.493453   
O44      O      0.841730000000     0.982670000000     0.623290000000    -0.490835   
O45      O      0.934680000000     0.748540000000     0.663590000000    -0.493431   
O46      O      0.927190000000     0.924420000000     0.554660000000    -0.50044    
O47      O      0.827090000000     0.805010000000     0.764580000000    -0.511028   
O48      O      0.864980000000     0.791050000000     0.570070000000    -0.49864    
O49      O      0.126710000000     0.357420000000     0.668410000000    -0.493346   
O50      O      0.056590000000     0.258230000000     0.688830000000    -0.489177   
O51      O      0.179210000000     0.329920000000     0.469970000000    -0.488702   
O52      O      0.238550000000     0.229400000000     0.550040000000    -0.487056   
O53      O      0.981720000000     0.261040000000     0.537790000000    -0.51383    
O54      O      0.168650000000     0.174040000000     0.635440000000    -0.503421   
O55      O      0.105940000000     0.399900000000     0.540180000000    -0.493214   
O56      O      0.062490000000     0.190770000000     0.477790000000    -0.514317   
O57      O      0.481020000000     0.292580000000     0.019530000000    -0.511492   
O58      O      0.397800000000     0.254130000000     0.936890000000    -0.513054   
O59      O      0.391780000000     0.265840000000     0.164140000000    -0.496144   
O60      O      0.338090000000     0.401320000000     0.142360000000    -0.503979   
O61      O      0.258380000000     0.386910000000     0.986060000000    -0.498329   
O62      O      0.398410000000     0.434440000000     0.039140000000    -0.494037   
O63      O      0.297880000000     0.208230000000     0.107720000000    -0.490197   
O64      O      0.233610000000     0.268590000000     0.998640000000    -0.481303   
S1       S      0.048460000000     0.493190000000     0.784390000000    -0.0388549  
S2       S      0.023270000000     0.118580000000     0.332160000000    -0.027518   
S3       S      0.641460000000     0.097090000000     0.809690000000    -0.0447631  
S4       S      0.925120000000     0.461520000000     0.528130000000    -0.0142663  
S5       S      0.296770000000     0.389530000000     0.367470000000     0.000392617
S6       S      0.568540000000     0.318780000000     0.199850000000    -0.00652001 
S7       S      0.376150000000     0.200830000000     0.364780000000    -0.0220547  
S8       S      0.590180000000     0.882370000000     0.698760000000    -0.00493419 
S9       S      0.924000000000     0.990590000000     0.021040000000    -0.0221943  
S10      S      0.519300000000     0.085340000000     0.540410000000    -0.0178718  
S11      S      0.613790000000     0.610020000000     0.242290000000    -0.0368563  
S12      S      0.325490000000     0.481870000000     0.829090000000    -0.0243638  
S13      S      0.485970000000     0.571820000000     0.020890000000    -0.0266012  
S14      S      0.962710000000     0.669390000000     0.858250000000    -0.00658797 
S15      S      0.293410000000     0.884280000000     0.867150000000     0.00036279 
S16      S      0.098520000000     0.899590000000     0.512360000000    -0.0192558  


