data_structure

_audit_creation_method RASPA-1.0
_audit_creation_date 2023-5-22
_audit_author_name 'Poobodin Mano'

_cell_length_a    33.7155
_cell_length_b    29.9834
_cell_length_c    32.6808
_cell_angle_alpha 89.9923
_cell_angle_beta  89.728
_cell_angle_gamma 119.998
_cell_volume      28611.2

_symmetry_cell_setting          triclinic
_symmetry_space_group_name_Hall 'P 1'
_symmetry_space_group_name_H-M  'P 1'
_symmetry_Int_Tables_number     1

_symmetry_equiv_pos_as_xyz 'x,y,z'

loop_
_atom_site_label
_atom_site_type_symbol
_atom_site_fract_x
_atom_site_fract_y
_atom_site_fract_z
_atom_site_charge
C1       C      0.761540000000     0.658140000000     0.343740000000     0.405848   
C2       C      0.899990000000     0.658170000000     0.314010000000     0.405404   
C3       C      0.803930000000     0.559550000000     0.400570000000     0.407557   
C4       C      0.767480000000     0.560890000000     0.259920000000     0.408614   
C5       C      0.622420000000     0.924230000000     0.137280000000     0.405585   
C6       C      0.620870000000     0.779330000000     0.174370000000     0.403464   
C7       C      0.515000000000     0.799020000000     0.218910000000     0.413461   
C8       C      0.527410000000     0.785810000000     0.080200000000     0.409148   
C9       C      0.859410000000     0.360540000000     0.945480000000     0.406257   
C10      C      0.719840000000     0.219250000000     0.973610000000     0.406624   
C11      C      0.778280000000     0.378400000000     0.029480000000     0.409659   
C12      C      0.724750000000     0.334910000000     0.898730000000     0.407269   
C13      C      0.157880000000     0.456720000000     0.851380000000     0.411378   
C14      C      0.285750000000     0.478440000000     0.809900000000     0.406121   
C15      C      0.274850000000     0.614740000000     0.801760000000     0.406517   
C16      C      0.276930000000     0.562790000000     0.923640000000     0.403781   
C17      C      0.468290000000     0.405020000000     0.641920000000     0.407299   
C18      C      0.411720000000     0.251260000000     0.597400000000     0.408614   
C19      C      0.562760000000     0.380730000000     0.574180000000     0.404364   
C20      C      0.515980000000     0.293430000000     0.688210000000     0.408297   
C21      C      0.295140000000     0.911230000000     0.510710000000     0.411925   
C22      C      0.174200000000     0.774780000000     0.455810000000     0.409905   
C23      C      0.316680000000     0.817650000000     0.424400000000     0.407019   
C24      C      0.254430000000     0.749670000000     0.546890000000     0.41002    
C25      C      0.338230000000     0.004130000000     0.494370000000     0.0154384  
C26      C      0.337980000000     0.171740000000     0.611060000000     0.0156801  
C27      C      0.360540000000     0.202450000000     0.540030000000     0.0157051  
C28      C      0.334740000000     0.119890000000     0.602690000000    -0.100007   
C29      C      0.322690000000     0.043600000000     0.500660000000    -0.101985   
C30      C      0.356830000000     0.151710000000     0.526130000000    -0.100143   
C31      C      0.323900000000     0.058270000000     0.545610000000     0.018573   
C32      C      0.335160000000     0.107400000000     0.557270000000     0.0172655  
C33      C      0.319880000000     0.974510000000     0.567050000000     0.0145366  
C34      C      0.303820000000     0.013170000000     0.575820000000    -0.101743   
C35      C      0.284640000000     0.420180000000     0.755630000000     0.014989   
C36      C      0.480490000000     0.480510000000     0.682330000000     0.0168333  
C37      C      0.419430000000     0.443820000000     0.630480000000     0.0152598  
C38      C      0.446980000000     0.469480000000     0.717650000000    -0.100408   
C39      C      0.319210000000     0.440630000000     0.720240000000    -0.100553   
C40      C      0.381460000000     0.430850000000     0.662040000000    -0.0999086  
C41      C      0.367790000000     0.454380000000     0.732770000000     0.0180097  
C42      C      0.398330000000     0.454800000000     0.704420000000     0.0174039  
C43      C      0.346170000000     0.454690000000     0.807710000000     0.015871   
C44      C      0.383970000000     0.477900000000     0.775290000000    -0.100848   
C45      C      0.283020000000     0.698100000000     0.582170000000     0.0142536  
C46      C      0.260900000000     0.683490000000     0.776440000000     0.0157868  
C47      C      0.329020000000     0.680070000000     0.752610000000     0.0147664  
C48      C      0.242310000000     0.678980000000     0.733140000000    -0.100239   
C49      C      0.303770000000     0.709570000000     0.625180000000    -0.100655   
C50      C      0.315540000000     0.676690000000     0.707500000000    -0.0999659  
C51      C      0.268900000000     0.698370000000     0.659570000000     0.0179234  
C52      C      0.277110000000     0.688680000000     0.699000000000     0.0172028  
C53      C      0.212330000000     0.696170000000     0.606790000000     0.0159314  
C54      C      0.230130000000     0.709440000000     0.650540000000    -0.101165   
C55      C      0.935280000000     0.373150000000     0.964850000000     0.0146191  
C56      C      0.079830000000     0.416870000000     0.822540000000     0.0160056  
C57      C      0.094080000000     0.379610000000     0.884450000000     0.0150971  
C58      C      0.043490000000     0.425060000000     0.843650000000    -0.100501   
C59      C      0.964800000000     0.357230000000     0.939920000000    -0.10106    
C60      C      0.056620000000     0.382530000000     0.909020000000    -0.100302   
C61      C      0.985310000000     0.389200000000     0.900950000000     0.0179654  
C62      C      0.025270000000     0.395380000000     0.883940000000     0.0176591  
C63      C      0.927940000000     0.420550000000     0.905490000000     0.015438   
C64      C      0.954760000000     0.404380000000     0.877370000000    -0.101243   
C65      C      0.555790000000     0.248590000000     0.714050000000     0.014908   
C66      C      0.672660000000     0.363740000000     0.871860000000     0.0146265  
C67      C      0.713690000000     0.335990000000     0.824050000000     0.0149931  
C68      C      0.626460000000     0.328340000000     0.851680000000    -0.10099    
C69      C      0.600610000000     0.277570000000     0.737890000000    -0.100158   
C70      C      0.669600000000     0.298990000000     0.801670000000    -0.100965   
C71      C      0.595730000000     0.295160000000     0.780770000000     0.0172841  
C72      C      0.630570000000     0.310280000000     0.808810000000     0.0176442  
C73      C      0.514250000000     0.274670000000     0.762190000000     0.0157127  
C74      C      0.556550000000     0.306080000000     0.788660000000    -0.100518   
C75      C      0.506050000000     0.799610000000     0.294050000000     0.0157848  
C76      C      0.328460000000     0.806090000000     0.351370000000     0.0146119  
C77      C      0.395430000000     0.856150000000     0.396920000000     0.0152838  
C78      C      0.350130000000     0.776450000000     0.332760000000    -0.101165   
C79      C      0.481480000000     0.823050000000     0.317480000000    -0.100935   
C80      C      0.420250000000     0.829080000000     0.379960000000    -0.101435   
C81      C      0.429480000000     0.795170000000     0.311610000000     0.0179485  
C82      C      0.402010000000     0.803110000000     0.338610000000     0.0180537  
C83      C      0.438400000000     0.746870000000     0.250480000000     0.0156953  
C84      C      0.410360000000     0.768150000000     0.270730000000    -0.100878   
C85      C      0.693210000000     0.997440000000     0.108560000000     0.0149261  
C86      C      0.649130000000     0.142980000000     0.998960000000     0.0159475  
C87      C      0.712170000000     0.132670000000     0.970330000000     0.0150869  
C88      C      0.650080000000     0.119460000000     0.040210000000    -0.100606   
C89      C      0.692050000000     0.021590000000     0.067640000000    -0.100203   
C90      C      0.715880000000     0.106660000000     0.009350000000    -0.100287   
C91      C      0.667880000000     0.053360000000     0.069390000000     0.0174215  
C92      C      0.675400000000     0.088930000000     0.039170000000     0.0177128  
C93      C      0.633600000000     0.012410000000     0.139280000000     0.0149878  
C94      C      0.628310000000     0.036790000000     0.100020000000    -0.100353   
C95      C      0.504040000000     0.722710000000     0.023780000000     0.0152575  
C96      C      0.292570000000     0.625410000000     0.979380000000     0.0142674  
C97      C      0.316530000000     0.560250000000     0.986310000000     0.0158102  
C98      C      0.341770000000     0.670330000000     0.983570000000    -0.0996969  
C99      C      0.454930000000     0.677380000000     0.024090000000    -0.100342   
C100     C      0.367370000000     0.600500000000     0.988570000000    -0.100099   
C101     C      0.419150000000     0.692080000000     0.011610000000     0.017802   
C102     C      0.376700000000     0.655040000000     0.997850000000     0.0169007  
C103     C      0.478750000000     0.787290000000     0.024250000000     0.0157351  
C104     C      0.428010000000     0.745910000000     0.023090000000    -0.100586   
C105     C      0.628640000000     0.462590000000     0.550330000000     0.0138342  
C106     C      0.785590000000     0.479270000000     0.437430000000     0.0158811  
C107     C      0.807070000000     0.558600000000     0.476180000000     0.0159997  
C108     C      0.737940000000     0.449740000000     0.457070000000    -0.0998489  
C109     C      0.678900000000     0.476790000000     0.551050000000    -0.101507   
C110     C      0.760970000000     0.535300000000     0.498520000000    -0.0998238  
C111     C      0.690020000000     0.451270000000     0.515890000000     0.0182903  
C112     C      0.729640000000     0.477040000000     0.493010000000     0.0177309  
C113     C      0.606680000000     0.380320000000     0.513340000000     0.0136153  
C114     C      0.656850000000     0.393420000000     0.511710000000    -0.101574   
C115     C      0.107440000000     0.785560000000     0.441370000000     0.0147307  
C116     C      0.970680000000     0.655190000000     0.298960000000     0.0149134  
C117     C      0.974900000000     0.738820000000     0.310270000000     0.0149304  
C118     C      0.002000000000     0.662270000000     0.335120000000    -0.0994019  
C119     C      0.088300000000     0.784490000000     0.398760000000    -0.101304   
C120     C      0.006560000000     0.751940000000     0.347180000000    -0.0994169  
C121     C      0.062330000000     0.730350000000     0.380430000000     0.0183926  
C122     C      0.027010000000     0.716760000000     0.353170000000     0.0167398  
C123     C      0.102460000000     0.700710000000     0.430360000000     0.0156258  
C124     C      0.083520000000     0.696180000000     0.387170000000    -0.101576   
C125     C      0.695680000000     0.788380000000     0.192980000000     0.0145469  
C126     C      0.687070000000     0.655090000000     0.348140000000     0.0156623  
C127     C      0.758460000000     0.738790000000     0.344610000000     0.0156144  
C128     C      0.670420000000     0.661880000000     0.306370000000    -0.0995187  
C129     C      0.706310000000     0.785030000000     0.237990000000    -0.100573   
C130     C      0.746750000000     0.752500000000     0.302950000000    -0.0996687  
C131     C      0.680650000000     0.730130000000     0.255390000000     0.0175841  
C132     C      0.697410000000     0.716630000000     0.288650000000     0.0169832  
C133     C      0.625360000000     0.702520000000     0.195000000000     0.0149022  
C134     C      0.631710000000     0.694680000000     0.240250000000    -0.10064    
C135     C      0.753380000000     0.563660000000     0.185850000000     0.0155674  
C136     C      0.772880000000     0.383460000000     0.104630000000     0.0150811  
C137     C      0.808040000000     0.463480000000     0.062340000000     0.015068   
C138     C      0.741930000000     0.399210000000     0.127100000000    -0.101408   
C139     C      0.772150000000     0.541110000000     0.154220000000    -0.100184   
C140     C      0.779430000000     0.483290000000     0.083800000000    -0.101419   
C141     C      0.751640000000     0.482500000000     0.156260000000     0.0177409  
C142     C      0.760070000000     0.457240000000     0.125140000000     0.0182983  
C143     C      0.711980000000     0.481510000000     0.223910000000     0.0161228  
C144     C      0.730080000000     0.454330000000     0.196500000000    -0.100305   
H1       H      0.345290000000     0.076600000000     0.480710000000     0.0443295  
H2       H      0.303860000000     0.167770000000     0.605210000000     0.0265444  
H3       H      0.356650000000     0.992500000000     0.575460000000     0.0277756  
H4       H      0.313500000000     0.025260000000     0.607970000000     0.0440494  
H5       H      0.302440000000     0.090430000000     0.617530000000     0.0438705  
H6       H      0.336400000000     0.140920000000     0.497570000000     0.0441122  
H7       H      0.332150000000     0.991150000000     0.461980000000     0.0400687  
H8       H      0.346180000000     0.181870000000     0.643860000000     0.0389546  
H9       H      0.265860000000     0.993210000000     0.573880000000     0.0526231  
H10      H      0.391820000000     0.159070000000     0.518680000000     0.0524859  
H11      H      0.300310000000     0.940140000000     0.586950000000     0.0393541  
H12      H      0.326770000000     0.199840000000     0.535230000000     0.0268474  
H13      H      0.287050000000     0.027300000000     0.489400000000     0.0535158  
H14      H      0.364060000000     0.119530000000     0.617820000000     0.0518761  
H15      H      0.386050000000     0.234520000000     0.520570000000     0.0404541  
H16      H      0.375800000000     0.023530000000     0.499720000000     0.02766    
H17      H      0.304980000000     0.410140000000     0.696550000000     0.0439513  
H18      H      0.491270000000     0.519580000000     0.670020000000     0.0263583  
H19      H      0.338930000000     0.414970000000     0.814690000000     0.0272861  
H20      H      0.411750000000     0.471880000000     0.787050000000     0.0443827  
H21      H      0.462310000000     0.504940000000     0.736590000000     0.0442313  
H22      H      0.358930000000     0.444130000000     0.648590000000     0.0437677  
H23      H      0.252410000000     0.418570000000     0.745860000000     0.0392998  
H24      H      0.511630000000     0.480910000000     0.693890000000     0.0405714  
H25      H      0.397190000000     0.520020000000     0.773220000000     0.054151   
H26      H      0.361280000000     0.388290000000     0.665720000000     0.0520339  
H27      H      0.358510000000     0.477570000000     0.836320000000     0.0413345  
H28      H      0.431410000000     0.483350000000     0.618580000000     0.0264242  
H29      H      0.320580000000     0.475710000000     0.707410000000     0.052519   
H30      H      0.444970000000     0.437390000000     0.736300000000     0.0541504  
H31      H      0.405360000000     0.416760000000     0.604260000000     0.0390508  
H32      H      0.276490000000     0.380160000000     0.762670000000     0.0271919  
H33      H      0.320640000000     0.686100000000     0.628310000000     0.0436809  
H34      H      0.283250000000     0.725070000000     0.783580000000     0.0264764  
H35      H      0.192640000000     0.653480000000     0.603830000000     0.0269316  
H36      H      0.199770000000     0.686600000000     0.670390000000     0.0443543  
H37      H      0.230260000000     0.707300000000     0.731520000000     0.0441512  
H38      H      0.347390000000     0.704050000000     0.690920000000     0.043509   
H39      H      0.311130000000     0.715130000000     0.559100000000     0.0392636  
H40      H      0.231980000000     0.667430000000     0.798710000000     0.0404058  
H41      H      0.242820000000     0.750980000000     0.656100000000     0.0538265  
H42      H      0.304320000000     0.637110000000     0.696370000000     0.0514591  
H43      H      0.188250000000     0.710640000000     0.601080000000     0.0397915  
H44      H      0.351140000000     0.721430000000     0.760580000000     0.0261224  
H45      H      0.330600000000     0.750880000000     0.626830000000     0.051937   
H46      H      0.212380000000     0.639680000000     0.729170000000     0.0534292  
H47      H      0.349660000000     0.660880000000     0.756920000000     0.0381544  
H48      H      0.264250000000     0.655620000000     0.577730000000     0.0270917  
H49      H      0.991470000000     0.360390000000     0.961350000000     0.043948   
H50      H      0.062580000000     0.377960000000     0.808340000000     0.0270268  
H51      H      0.952380000000     0.458220000000     0.919540000000     0.0275587  
H52      H      0.974590000000     0.437750000000     0.856730000000     0.0443171  
H53      H      0.015440000000     0.413010000000     0.821080000000     0.044254   
H54      H      0.036480000000     0.344410000000     0.924170000000     0.0440107  
H55      H      0.915780000000     0.343180000000     0.988400000000     0.0396774  
H56      H      0.096270000000     0.445680000000     0.797570000000     0.0399169  
H57      H      0.930410000000     0.371090000000     0.858520000000     0.0535592  
H58      H      0.073220000000     0.412390000000     0.933070000000     0.0515751  
H59      H      0.903420000000     0.426380000000     0.886790000000     0.0411394  
H60      H      0.078510000000     0.341250000000     0.869420000000     0.0267276  
H61      H      0.943510000000     0.316150000000     0.931010000000     0.052771   
H62      H      0.058280000000     0.466840000000     0.849940000000     0.0526779  
H63      H      0.120840000000     0.382270000000     0.905690000000     0.0388666  
H64      H      0.958460000000     0.409540000000     0.981190000000     0.0270242  
H65      H      0.614380000000     0.250840000000     0.739540000000     0.0435933  
H66      H      0.688130000000     0.402220000000     0.856880000000     0.0281678  
H67      H      0.495370000000     0.234670000000     0.774490000000     0.0267757  
H68      H      0.544250000000     0.296960000000     0.820810000000     0.044016   
H69      H      0.608410000000     0.350740000000     0.851230000000     0.0441478  
H70      H      0.679470000000     0.302270000000     0.768920000000     0.0437953  
H71      H      0.563650000000     0.246480000000     0.681260000000     0.0384188  
H72      H      0.666850000000     0.368790000000     0.904640000000     0.0399457  
H73      H      0.569540000000     0.347720000000     0.783070000000     0.0527728  
H74      H      0.658020000000     0.258980000000     0.812000000000     0.0518736  
H75      H      0.491180000000     0.291090000000     0.764680000000     0.0402911  
H76      H      0.729680000000     0.373860000000     0.808040000000     0.0279291  
H77      H      0.624990000000     0.312130000000     0.719960000000     0.0511693  
H78      H      0.606560000000     0.293830000000     0.871340000000     0.0518237  
H79      H      0.738050000000     0.321260000000     0.821940000000     0.0406801  
H80      H      0.536410000000     0.208460000000     0.726010000000     0.0263992  
H81      H      0.490330000000     0.822460000000     0.350060000000     0.0438324  
H82      H      0.337670000000     0.840350000000     0.331830000000     0.0277224  
H83      H      0.431580000000     0.711310000000     0.267130000000     0.0265272  
H84      H      0.375480000000     0.734390000000     0.274620000000     0.0438225  
H85      H      0.340520000000     0.771940000000     0.300000000000     0.0439256  
H86      H      0.456780000000     0.859510000000     0.378320000000     0.0441007  
H87      H      0.543470000000     0.827530000000     0.293840000000     0.0385048  
H88      H      0.290570000000     0.781180000000     0.350650000000     0.0399655  
H89      H      0.408430000000     0.795950000000     0.249480000000     0.0524067  
H90      H      0.416890000000     0.799330000000     0.402210000000     0.0527507  
H91      H      0.426500000000     0.735720000000     0.218480000000     0.0388844  
H92      H      0.406780000000     0.892230000000     0.379130000000     0.0277541  
H93      H      0.495890000000     0.863790000000     0.307680000000     0.0526439  
H94      H      0.334320000000     0.737530000000     0.346920000000     0.0522223  
H95      H      0.406050000000     0.867300000000     0.429190000000     0.0403155  
H96      H      0.500640000000     0.764710000000     0.310880000000     0.0258693  
H97      H      0.728410000000     0.045570000000     0.058090000000     0.0441444  
H98      H      0.624500000000     0.111510000000     0.978730000000     0.0259335  
H99      H      0.660010000000     0.043530000000     0.158640000000     0.0275113  
H100     H      0.625020000000     0.070160000000     0.110110000000     0.0442247  
H101     H      0.613670000000     0.094590000000     0.049300000000     0.044144   
H102     H      0.719470000000     0.073670000000     0.998760000000     0.0439508  
H103     H      0.703940000000     0.968350000000     0.103280000000     0.0411209  
H104     H      0.636310000000     0.170360000000     0.003450000000     0.0394076  
H105     H      0.595960000000     0.008670000000     0.084730000000     0.052552   
H106     H      0.747710000000     0.134100000000     0.025670000000     0.0531341  
H107     H      0.600730000000     0.994310000000     0.156610000000     0.0397345  
H108     H      0.687720000000     0.102160000000     0.949330000000     0.0261678  
H109     H      0.674250000000     0.990420000000     0.044780000000     0.0521948  
H110     H      0.666940000000     0.150840000000     0.063060000000     0.0542721  
H111     H      0.746060000000     0.152810000000     0.954680000000     0.0394175  
H112     H      0.719620000000     0.028230000000     0.128150000000     0.0275629  
H113     H      0.454960000000     0.648390000000     0.002970000000     0.0444292  
H114     H      0.276790000000     0.615220000000     0.010440000000     0.0266753  
H115     H      0.491120000000     0.798290000000     0.992190000000     0.0256512  
H116     H      0.412020000000     0.760120000000     0.000900000000     0.0438041  
H117     H      0.339880000000     0.697610000000     0.005390000000     0.0438245  
H118     H      0.381900000000     0.586790000000     0.012660000000     0.0446099  
H119     H      0.526980000000     0.710830000000     0.038530000000     0.0399265  
H120     H      0.272260000000     0.637830000000     0.960760000000     0.0389277  
H121     H      0.412620000000     0.743490000000     0.053750000000     0.0536424  
H122     H      0.383890000000     0.601280000000     0.958850000000     0.0538493  
H123     H      0.482570000000     0.822200000000     0.039810000000     0.0383213  
H124     H      0.302190000000     0.552130000000     0.017940000000     0.026892   
H125     H      0.446420000000     0.660510000000     0.055380000000     0.0534478  
H126     H      0.353270000000     0.689820000000     0.953370000000     0.0511741  
H127     H      0.312490000000     0.523790000000     0.973630000000     0.0412856  
H128     H      0.515360000000     0.732930000000     0.991400000000     0.0265591  
H129     H      0.698940000000     0.519380000000     0.550650000000     0.044224   
H130     H      0.809770000000     0.473170000000     0.456480000000     0.0257317  
H131     H      0.598790000000     0.393730000000     0.484370000000     0.0292162  
H132     H      0.660810000000     0.376860000000     0.482760000000     0.0444379  
H133     H      0.733560000000     0.412180000000     0.467290000000     0.0439912  
H134     H      0.769060000000     0.544550000000     0.531420000000     0.0438236  
H135     H      0.621340000000     0.479300000000     0.577760000000     0.0407163  
H136     H      0.784850000000     0.463330000000     0.406540000000     0.0402942  
H137     H      0.663210000000     0.373340000000     0.537240000000     0.0521706  
H138     H      0.742480000000     0.554920000000     0.487340000000     0.0530279  
H139     H      0.584280000000     0.337770000000     0.514900000000     0.0408967  
H140     H      0.830700000000     0.551020000000     0.494730000000     0.0253977  
H141     H      0.686190000000     0.463680000000     0.580430000000     0.052363   
H142     H      0.712110000000     0.442480000000     0.433090000000     0.053774   
H143     H      0.822290000000     0.601070000000     0.473850000000     0.03792    
H144     H      0.623000000000     0.480620000000     0.522870000000     0.0285087  
H145     H      0.066420000000     0.802130000000     0.402570000000     0.0443126  
H146     H      0.992350000000     0.671400000000     0.271080000000     0.026458   
H147     H      0.073060000000     0.681370000000     0.452020000000     0.0274121  
H148     H      0.058530000000     0.654690000000     0.383070000000     0.0442457  
H149     H      0.026990000000     0.651250000000     0.323680000000     0.0438562  
H150     H      0.034170000000     0.792500000000     0.342630000000     0.0441219  
H151     H      0.130560000000     0.826270000000     0.450430000000     0.0396062  
H152     H      0.947200000000     0.613400000000     0.293600000000     0.0386859  
H153     H      0.111690000000     0.707310000000     0.364570000000     0.0537097  
H154     H      0.986890000000     0.749790000000     0.375240000000     0.052631   
H155     H      0.121850000000     0.679740000000     0.431680000000     0.0403159  
H156     H      0.996490000000     0.754020000000     0.282230000000     0.026721   
H157     H      0.117030000000     0.809420000000     0.377810000000     0.0526822  
H158     H      0.981000000000     0.634940000000     0.359780000000     0.051465   
H159     H      0.954510000000     0.758530000000     0.313190000000     0.0410279  
H160     H      0.078360000000     0.768550000000     0.463530000000     0.0276863  
H161     H      0.744000000000     0.801990000000     0.239420000000     0.044581   
H162     H      0.674340000000     0.671460000000     0.371960000000     0.0261738  
H163     H      0.642770000000     0.686220000000     0.176350000000     0.0278253  
H164     H      0.621220000000     0.653380000000     0.243430000000     0.0440548  
H165     H      0.633730000000     0.650160000000     0.310410000000     0.0438581  
H166     H      0.753700000000     0.792720000000     0.305570000000     0.0443325  
H167     H      0.709940000000     0.829460000000     0.184240000000     0.0413542  
H168     H      0.672300000000     0.613370000000     0.354890000000     0.0386019  
H169     H      0.607940000000     0.702050000000     0.258900000000     0.0520653  
H170     H      0.770470000000     0.751540000000     0.279660000000     0.053824   
H171     H      0.588270000000     0.680750000000     0.187500000000     0.0402753  
H172     H      0.744640000000     0.753300000000     0.368970000000     0.026405   
H173     H      0.696880000000     0.809490000000     0.256480000000     0.0528595  
H174     H      0.672860000000     0.635010000000     0.284400000000     0.0524955  
H175     H      0.796270000000     0.758590000000     0.348270000000     0.0408215  
H176     H      0.713280000000     0.772580000000     0.174010000000     0.0279273  
H177     H      0.765540000000     0.552760000000     0.123900000000     0.0439432  
H178     H      0.804890000000     0.397280000000     0.122550000000     0.0277219  
H179     H      0.679310000000     0.475630000000     0.210790000000     0.0263712  
H180     H      0.700310000000     0.415520000000     0.190470000000     0.0442625  
H181     H      0.739240000000     0.384910000000     0.158850000000     0.0443936  
H182     H      0.802440000000     0.525460000000     0.086440000000     0.0442007  
H183     H      0.777360000000     0.605770000000     0.188660000000     0.0380833  
H184     H      0.755450000000     0.340710000000     0.103490000000     0.0399578  
H185     H      0.756220000000     0.449810000000     0.213730000000     0.0536545  
H186     H      0.750350000000     0.476400000000     0.063800000000     0.0533526  
H187     H      0.704250000000     0.463540000000     0.254830000000     0.0407881  
H188     H      0.841300000000     0.479200000000     0.078570000000     0.0269851  
H189     H      0.809810000000     0.559490000000     0.158410000000     0.0521023  
H190     H      0.707220000000     0.378920000000     0.113330000000     0.0529232  
H191     H      0.815590000000     0.478700000000     0.030510000000     0.0397573  
H192     H      0.720250000000     0.558360000000     0.174400000000     0.0256928  
In1      In     0.809030000000     0.609100000000     0.329920000000     2.40581    
In2      In     0.570330000000     0.822350000000     0.152560000000     2.39747    
In3      In     0.769560000000     0.322220000000     0.961920000000     2.40608    
In4      In     0.247880000000     0.528570000000     0.846940000000     2.39528    
In5      In     0.490150000000     0.331780000000     0.625380000000     2.39911    
In6      In     0.259950000000     0.812830000000     0.485110000000     2.3972     
N1       N      0.371830000000     0.210780000000     0.583510000000    -0.175798   
N2       N      0.315060000000     0.961190000000     0.523430000000    -0.176546   
N3       N      0.457640000000     0.442400000000     0.650130000000    -0.175556   
N4       N      0.304550000000     0.452230000000     0.791940000000    -0.175358   
N5       N      0.288030000000     0.657810000000     0.778550000000    -0.17598    
N6       N      0.250720000000     0.717030000000     0.577730000000    -0.17647    
N7       N      0.112750000000     0.419620000000     0.852840000000    -0.176894   
N8       N      0.905270000000     0.382250000000     0.938040000000    -0.175516   
N9       N      0.703580000000     0.343060000000     0.866440000000    -0.175536   
N10      N      0.528210000000     0.273320000000     0.719950000000    -0.176307   
N11      N      0.345650000000     0.823600000000     0.392830000000    -0.175217   
N12      N      0.487400000000     0.784460000000     0.252770000000    -0.177256   
N13      N      0.694740000000     0.167380000000     0.980190000000    -0.176083   
N14      N      0.648650000000     0.975640000000     0.129100000000    -0.174991   
N15      N      0.292970000000     0.580730000000     0.961900000000    -0.175598   
N16      N      0.505260000000     0.766890000000     0.044030000000    -0.177006   
N17      N      0.800690000000     0.534220000000     0.436210000000    -0.176544   
N18      N      0.598810000000     0.406430000000     0.547850000000    -0.175462   
N19      N      0.946060000000     0.682940000000     0.306840000000    -0.17583    
N20      N      0.130420000000     0.754990000000     0.441990000000    -0.175797   
N21      N      0.737100000000     0.682870000000     0.348180000000    -0.175626   
N22      N      0.646240000000     0.757630000000     0.186170000000    -0.174542   
N23      N      0.784640000000     0.407060000000     0.063830000000    -0.176574   
N24      N      0.745300000000     0.536610000000     0.224930000000    -0.176345   
O1       O      0.796670000000     0.608310000000     0.261090000000    -0.511428   
O2       O      0.760000000000     0.537730000000     0.293750000000    -0.49792    
O3       O      0.879040000000     0.681780000000     0.323290000000    -0.495721   
O4       O      0.804370000000     0.681920000000     0.338320000000    -0.492951   
O5       O      0.796000000000     0.537870000000     0.366160000000    -0.497876   
O6       O      0.742810000000     0.609690000000     0.343080000000    -0.509754   
O7       O      0.875130000000     0.609840000000     0.312460000000    -0.510655   
O8       O      0.814460000000     0.606260000000     0.399510000000    -0.5126     
O9       O      0.550830000000     0.768970000000     0.097140000000    -0.503297   
O10      O      0.525650000000     0.821110000000     0.099570000000    -0.506278   
O11      O      0.638170000000     0.827160000000     0.168700000000    -0.492479   
O12      O      0.633680000000     0.891870000000     0.125830000000    -0.497375   
O13      O      0.500010000000     0.782400000000     0.183600000000    -0.510347   
O14      O      0.584930000000     0.905320000000     0.156650000000    -0.50285    
O15      O      0.578200000000     0.753170000000     0.168730000000    -0.499549   
O16      O      0.557740000000     0.828740000000     0.220630000000    -0.509034   
O17      O      0.751620000000     0.317410000000     0.894330000000    -0.504294   
O18      O      0.719750000000     0.345260000000     0.935190000000    -0.503311   
O19      O      0.759670000000     0.241000000000     0.958380000000    -0.502445   
O20      O      0.839350000000     0.329570000000     0.974670000000    -0.500734   
O21      O      0.762540000000     0.330420000000     0.030640000000    -0.505999   
O22      O      0.833960000000     0.370980000000     0.924260000000    -0.502528   
O23      O      0.705130000000     0.249300000000     0.982670000000    -0.506462   
O24      O      0.788710000000     0.397960000000     0.994160000000    -0.505851   
O25      O      0.279950000000     0.526380000000     0.907590000000    -0.492851   
O26      O      0.258790000000     0.581870000000     0.901240000000    -0.504628   
O27      O      0.249020000000     0.475340000000     0.797560000000    -0.505727   
O28      O      0.174380000000     0.490250000000     0.823460000000    -0.502305   
O29      O      0.297900000000     0.592180000000     0.803690000000    -0.507866   
O30      O      0.186500000000     0.459830000000     0.877520000000    -0.511193   
O31      O      0.303680000000     0.507490000000     0.840330000000    -0.493156   
O32      O      0.238450000000     0.594130000000     0.822750000000    -0.496246   
O33      O      0.492030000000     0.314570000000     0.693140000000    -0.499092   
O34      O      0.527360000000     0.291980000000     0.651610000000    -0.510586   
O35      O      0.421470000000     0.258400000000     0.634920000000    -0.51024    
O36      O      0.448460000000     0.371630000000     0.614440000000    -0.506856   
O37      O      0.534310000000     0.333210000000     0.571160000000    -0.49343    
O38      O      0.498700000000     0.401130000000     0.661320000000    -0.492838   
O39      O      0.441630000000     0.284570000000     0.573800000000    -0.49613    
O40      O      0.554860000000     0.402990000000     0.603130000000    -0.509876   
O41      O      0.226740000000     0.766040000000     0.542940000000    -0.506366   
O42      O      0.285400000000     0.765440000000     0.519850000000    -0.503246   
O43      O      0.193800000000     0.748370000000     0.457980000000    -0.500631   
O44      O      0.291550000000     0.899040000000     0.473440000000    -0.504783   
O45      O      0.273770000000     0.795410000000     0.420230000000    -0.501746   
O46      O      0.280010000000     0.873680000000     0.535240000000    -0.505692   
O47      O      0.198020000000     0.820670000000     0.467980000000    -0.505528   
O48      O      0.330830000000     0.835900000000     0.459580000000    -0.499331   


