data_structure

_audit_creation_method RASPA-1.0
_audit_creation_date 2023-5-23
_audit_author_name 'Poobodin Mano'

_cell_length_a    34.0876
_cell_length_b    31.6359
_cell_length_c    34.0338
_cell_angle_alpha 89.9919
_cell_angle_beta  89.7292
_cell_angle_gamma 120.001
_cell_volume      31783.9

_symmetry_cell_setting          triclinic
_symmetry_space_group_name_Hall 'P 1'
_symmetry_space_group_name_H-M  'P 1'
_symmetry_Int_Tables_number     1

_symmetry_equiv_pos_as_xyz 'x,y,z'

loop_
_atom_site_label
_atom_site_type_symbol
_atom_site_fract_x
_atom_site_fract_y
_atom_site_fract_z
_atom_site_charge
C1       C      0.765190000000     0.635540000000     0.253980000000     0.415866   
C2       C      0.873490000000     0.646750000000     0.320780000000     0.415855   
C3       C      0.749160000000     0.544270000000     0.370890000000     0.415762   
C4       C      0.762610000000     0.501430000000     0.257020000000     0.415951   
C5       C      0.598460000000     0.885350000000     0.112420000000     0.415245   
C6       C      0.592260000000     0.743350000000     0.127860000000     0.41573    
C7       C      0.497960000000     0.791460000000     0.187270000000     0.415424   
C8       C      0.485410000000     0.734320000000     0.065980000000     0.415683   
C9       C      0.862800000000     0.328700000000     0.957400000000     0.415862   
C10      C      0.762840000000     0.203030000000     0.010480000000     0.415972   
C11      C      0.747390000000     0.327120000000     0.036270000000     0.416191   
C12      C      0.729170000000     0.293270000000     0.918370000000     0.415747   
C13      C      0.155440000000     0.477220000000     0.830190000000     0.415468   
C14      C      0.259130000000     0.449020000000     0.755000000000     0.415897   
C15      C      0.219120000000     0.551810000000     0.726740000000     0.415391   
C16      C      0.295530000000     0.551630000000     0.845100000000     0.415994   
C17      C      0.431700000000     0.309420000000     0.660590000000     0.417175   
C18      C      0.464850000000     0.207880000000     0.597290000000     0.419496   
C19      C      0.558640000000     0.360110000000     0.589230000000     0.419257   
C20      C      0.536910000000     0.290740000000     0.707190000000     0.421388   
C21      C      0.301850000000     0.899070000000     0.466580000000     0.418204   
C22      C      0.173500000000     0.792350000000     0.410600000000     0.417832   
C23      C      0.298870000000     0.786860000000     0.390210000000     0.420231   
C24      C      0.230060000000     0.744540000000     0.505410000000     0.421279   
C25      C      0.443710000000     0.060530000000     0.543210000000    -0.0417001  
C26      C      0.477240000000     0.150600000000     0.557260000000    -0.0164517  
C27      C      0.398750000000     0.023690000000     0.484730000000     0.0152446  
C28      C      0.449940000000     0.106240000000     0.532080000000     0.015448   
C29      C      0.371210000000     0.979250000000     0.459740000000    -0.0164266  
C30      C      0.430200000000     0.110310000000     0.497210000000    -0.0408595  
C31      C      0.404610000000     0.069300000000     0.473800000000    -0.0419554  
C32      C      0.418340000000     0.019580000000     0.519670000000    -0.0400868  
C33      C      0.338190000000     0.328420000000     0.745830000000    -0.0411719  
C34      C      0.360600000000     0.284340000000     0.696700000000    -0.0167678  
C35      C      0.277330000000     0.345190000000     0.732380000000     0.0157785  
C36      C      0.331890000000     0.305980000000     0.709010000000     0.015844   
C37      C      0.248730000000     0.366880000000     0.744870000000    -0.0169673  
C38      C      0.298640000000     0.304030000000     0.683680000000    -0.0413062  
C39      C      0.271660000000     0.323680000000     0.695220000000    -0.0416534  
C40      C      0.311150000000     0.347960000000     0.757400000000    -0.04041    
C41      C      0.193020000000     0.607710000000     0.569540000000    -0.0406962  
C42      C      0.175520000000     0.669850000000     0.540690000000    -0.0164403  
C43      C      0.173500000000     0.579840000000     0.637090000000     0.0150956  
C44      C      0.175350000000     0.639040000000     0.574530000000     0.0155823  
C45      C      0.172360000000     0.548080000000     0.670550000000    -0.0159498  
C46      C      0.157650000000     0.641360000000     0.611290000000    -0.0416623  
C47      C      0.156830000000     0.612040000000     0.642380000000    -0.0408705  
C48      C      0.192260000000     0.578450000000     0.600640000000    -0.0407716  
C49      C      0.024870000000     0.413660000000     0.954190000000    -0.0425361  
C50      C      0.943210000000     0.389130000000     0.968140000000    -0.0178547  
C51      C      0.066220000000     0.467370000000     0.899580000000     0.0148566  
C52      C      0.985890000000     0.415460000000     0.943850000000     0.0163131  
C53      C      0.109250000000     0.494800000000     0.875930000000    -0.0160288  
C54      C      0.987260000000     0.442990000000     0.910980000000    -0.0405976  
C55      C      0.027050000000     0.468520000000     0.888850000000    -0.0412534  
C56      C      0.064720000000     0.439410000000     0.932190000000    -0.040169   
C57      C      0.686570000000     0.342820000000     0.800920000000    -0.0420277  
C58      C      0.718550000000     0.342350000000     0.867770000000    -0.0169828  
C59      C      0.611410000000     0.332800000000     0.794160000000     0.0160939  
C60      C      0.680930000000     0.337910000000     0.841880000000     0.0153831  
C61      C      0.575170000000     0.332080000000     0.768510000000    -0.0172099  
C62      C      0.640110000000     0.329950000000     0.858760000000    -0.0400616  
C63      C      0.605540000000     0.327260000000     0.835080000000    -0.0428989  
C64      C      0.652090000000     0.340400000000     0.777260000000    -0.0397928  
C65      C      0.376170000000     0.722550000000     0.317010000000    -0.0420464  
C66      C      0.346210000000     0.750630000000     0.373400000000    -0.0171774  
C67      C      0.450390000000     0.776020000000     0.288360000000     0.0158482  
C68      C      0.382120000000     0.759460000000     0.343330000000     0.0160884  
C69      C      0.486840000000     0.784460000000     0.259030000000    -0.0170646  
C70      C      0.422170000000     0.804920000000     0.341570000000    -0.0401759  
C71      C      0.455980000000     0.813230000000     0.314170000000    -0.041882   
C72      C      0.410060000000     0.730810000000     0.289710000000    -0.0400398  
C73      C      0.713030000000     0.096670000000     0.108080000000    -0.0405764  
C74      C      0.775020000000     0.157300000000     0.063350000000    -0.0175416  
C75      C      0.696150000000     0.012570000000     0.112900000000     0.0151545  
C76      C      0.747570000000     0.106860000000     0.080640000000     0.0166718  
C77      C      0.667850000000     0.961830000000     0.129400000000    -0.0159582  
C78      C      0.755760000000     0.069370000000     0.069030000000    -0.0421063  
C79      C      0.730110000000     0.022500000000     0.084920000000    -0.0401271  
C80      C      0.687460000000     0.049840000000     0.124040000000    -0.0411457  
C81      C      0.398430000000     0.585570000000     0.952890000000    -0.0422705  
C82      C      0.333880000000     0.545860000000     0.904460000000    -0.0171781  
C83      C      0.395100000000     0.631940000000     0.008480000000     0.0163391  
C84      C      0.356030000000     0.577120000000     0.939990000000     0.0154558  
C85      C      0.415750000000     0.660140000000     0.045640000000    -0.016984   
C86      C      0.333540000000     0.596690000000     0.961400000000    -0.0393585  
C87      C      0.353020000000     0.624110000000     0.995280000000    -0.0428613  
C88      C      0.417780000000     0.612730000000     0.986900000000    -0.0408319  
C89      C      0.666300000000     0.413340000000     0.507040000000    -0.040447   
C90      C      0.637630000000     0.421730000000     0.573350000000    -0.0172132  
C91      C      0.720370000000     0.484260000000     0.469500000000     0.0149779  
C92      C      0.665520000000     0.443770000000     0.536700000000     0.0157738  
C93      C      0.749930000000     0.506120000000     0.433700000000    -0.0159418  
C94      C      0.691930000000     0.494630000000     0.532260000000    -0.0423249  
C95      C      0.719110000000     0.514710000000     0.498870000000    -0.0407043  
C96      C      0.693290000000     0.433430000000     0.473570000000    -0.0411817  
C97      C      0.058070000000     0.803880000000     0.350030000000    -0.0418305  
C98      C      0.116710000000     0.818130000000     0.401430000000    -0.0169992  
C99      C      0.977650000000     0.751090000000     0.362980000000     0.014979   
C100     C      0.068250000000     0.795180000000     0.388070000000     0.0159105  
C101     C      0.929280000000     0.726000000000     0.349100000000    -0.0159293  
C102     C      0.032830000000     0.763810000000     0.413290000000    -0.0407702  
C103     C      0.987870000000     0.741810000000     0.400790000000    -0.0404404  
C104     C      0.013090000000     0.781880000000     0.337540000000    -0.0410143  
C105     C      0.707690000000     0.657990000000     0.143320000000    -0.0405876  
C106     C      0.771160000000     0.676240000000     0.190520000000    -0.0171805  
C107     C      0.687710000000     0.719460000000     0.126340000000     0.0161218  
C108     C      0.742540000000     0.691520000000     0.167640000000     0.0158937  
C109     C      0.656630000000     0.733530000000     0.106220000000    -0.0170869  
C110     C      0.749630000000     0.739040000000     0.171330000000    -0.0416945  
C111     C      0.722270000000     0.752840000000     0.150970000000    -0.0400917  
C112     C      0.680410000000     0.671840000000     0.122880000000    -0.0420672  
C113     C      0.702590000000     0.330490000000     0.158150000000    -0.0403579  
C114     C      0.690240000000     0.320000000000     0.084880000000    -0.0170669  
C115     C      0.697120000000     0.394140000000     0.193450000000     0.0158146  
C116     C      0.691250000000     0.344830000000     0.122930000000     0.0159199  
C117     C      0.703060000000     0.422510000000     0.230610000000    -0.016962   
C118     C      0.682980000000     0.384070000000     0.123210000000    -0.0420381  
C119     C      0.686090000000     0.408690000000     0.158190000000    -0.0401596  
C120     C      0.705580000000     0.355030000000     0.193140000000    -0.0418334  
H1       H      0.316400000000     0.957920000000     0.502390000000     0.106788   
H2       H      0.496390000000     0.143500000000     0.580200000000     0.045894   
H3       H      0.502540000000     0.181010000000     0.538580000000     0.0453889  
H4       H      0.413900000000     0.984600000000     0.528710000000     0.0440338  
H5       H      0.458450000000     0.056510000000     0.570080000000     0.0422282  
H6       H      0.364500000000     0.989620000000     0.430360000000     0.0429729  
H7       H      0.434490000000     0.145250000000     0.488250000000     0.0427897  
H8       H      0.389510000000     0.073230000000     0.447120000000     0.0409888  
H9       H      0.390860000000     0.960370000000     0.454270000000     0.0473301  
H10      H      0.412640000000     0.144780000000     0.573500000000     0.106109   
H11      H      0.301120000000     0.435580000000     0.719520000000     0.10548    
H12      H      0.374120000000     0.274730000000     0.722820000000     0.0472695  
H13      H      0.339750000000     0.250080000000     0.679970000000     0.046254   
H14      H      0.316520000000     0.365160000000     0.785920000000     0.0431112  
H15      H      0.363990000000     0.330750000000     0.765630000000     0.041712   
H16      H      0.216320000000     0.350010000000     0.728380000000     0.043542   
H17      H      0.293600000000     0.287300000000     0.655000000000     0.0426883  
H18      H      0.246270000000     0.321940000000     0.675220000000     0.0414596  
H19      H      0.239280000000     0.358640000000     0.776450000000     0.0500435  
H20      H      0.399460000000     0.350120000000     0.661170000000     0.106231   
H21      H      0.236130000000     0.610540000000     0.689770000000     0.10727    
H22      H      0.167180000000     0.648530000000     0.512940000000     0.0474546  
H23      H      0.149430000000     0.680760000000     0.545030000000     0.0431181  
H24      H      0.206000000000     0.554450000000     0.596200000000     0.0423812  
H25      H      0.207270000000     0.605830000000     0.541510000000     0.0433478  
H26      H      0.141230000000     0.536000000000     0.688590000000     0.0441456  
H27      H      0.144320000000     0.665700000000     0.615860000000     0.0413638  
H28      H      0.142920000000     0.614200000000     0.670500000000     0.0418633  
H29      H      0.170370000000     0.514080000000     0.659180000000     0.0456232  
H30      H      0.244680000000     0.722690000000     0.557970000000     0.106859   
H31      H      0.091910000000     0.424640000000     0.849610000000     0.106643   
H32      H      0.948850000000     0.373480000000     0.995360000000     0.043533   
H33      H      0.932630000000     0.415710000000     0.977400000000     0.0513844  
H34      H      0.094500000000     0.437690000000     0.940630000000     0.042401   
H35      H      0.024560000000     0.392580000000     0.979390000000     0.0409223  
H36      H      0.108390000000     0.523040000000     0.857060000000     0.0437516  
H37      H      0.957500000000     0.444750000000     0.902540000000     0.0443902  
H38      H      0.027340000000     0.489430000000     0.863530000000     0.0411977  
H39      H      0.138490000000     0.514860000000     0.896030000000     0.0454966  
H40      H      0.914270000000     0.336870000000     0.920070000000     0.105204   
H41      H      0.558020000000     0.259160000000     0.749200000000     0.105787   
H42      H      0.750220000000     0.353930000000     0.850670000000     0.0433316  
H43      H      0.726230000000     0.370930000000     0.890280000000     0.0474329  
H44      H      0.657250000000     0.344840000000     0.745760000000     0.045263   
H45      H      0.717780000000     0.349010000000     0.787280000000     0.041297   
H46      H      0.546870000000     0.329690000000     0.786580000000     0.040301   
H47      H      0.635190000000     0.326140000000     0.890310000000     0.0427382  
H48      H      0.574460000000     0.321410000000     0.848770000000     0.0403136  
H49      H      0.589700000000     0.367090000000     0.751950000000     0.0509907  
H50      H      0.677710000000     0.263700000000     0.877380000000     0.106826   
H51      H      0.447970000000     0.798980000000     0.215690000000     0.105719   
H52      H      0.320330000000     0.711230000000     0.375440000000     0.0423216  
H53      H      0.362200000000     0.762140000000     0.402810000000     0.0494899  
H54      H      0.404970000000     0.701860000000     0.269720000000     0.0441177  
H55      H      0.345420000000     0.687320000000     0.317680000000     0.0414665  
H56      H      0.519800000000     0.816590000000     0.267380000000     0.0432627  
H57      H      0.427230000000     0.833900000000     0.361500000000     0.0441992  
H58      H      0.486610000000     0.848560000000     0.313310000000     0.0411387  
H59      H      0.492360000000     0.752630000000     0.259080000000     0.050375   
H60      H      0.325860000000     0.791260000000     0.334790000000     0.106769   
H61      H      0.616920000000     0.951630000000     0.085980000000     0.107402   
H62      H      0.776160000000     0.185140000000     0.084030000000     0.0496457  
H63      H      0.810440000000     0.165730000000     0.058160000000     0.0405306  
H64      H      0.660840000000     0.042620000000     0.145050000000     0.0415652  
H65      H      0.705820000000     0.124950000000     0.117060000000     0.0425123  
H66      H      0.687500000000     0.942390000000     0.129650000000     0.0474881  
H67      H      0.781900000000     0.076380000000     0.047550000000     0.0416644  
H68      H      0.736770000000     0.994000000000     0.075420000000     0.0424406  
H69      H      0.658870000000     0.963600000000     0.160590000000     0.0420849  
H70      H      0.737390000000     0.128460000000     0.009030000000     0.107075   
H71      H      0.463990000000     0.719900000000     0.008240000000     0.106871   
H72      H      0.354650000000     0.530840000000     0.892140000000     0.041093   
H73      H      0.300740000000     0.514280000000     0.913560000000     0.0490038  
H74      H      0.450320000000     0.618500000000     0.996600000000     0.0425691  
H75      H      0.416350000000     0.570730000000     0.936910000000     0.0402887  
H76      H      0.391250000000     0.667170000000     0.061980000000     0.0446389  
H77      H      0.300730000000     0.590410000000     0.951990000000     0.0443997  
H78      H      0.334990000000     0.638720000000     0.011400000000     0.0421823  
H79      H      0.424070000000     0.637890000000     0.065590000000     0.047151   
H80      H      0.346880000000     0.611840000000     0.873160000000     0.106976   
H81      H      0.699940000000     0.525270000000     0.413820000000     0.106993   
H82      H      0.648100000000     0.396970000000     0.587030000000     0.0490028  
H83      H      0.643550000000     0.450260000000     0.595370000000     0.0426995  
H84      H      0.693380000000     0.409300000000     0.451030000000     0.0413508  
H85      H      0.646150000000     0.374020000000     0.509960000000     0.0438297  
H86      H      0.783860000000     0.536110000000     0.442690000000     0.0435324  
H87      H      0.691810000000     0.518800000000     0.554740000000     0.0409664  
H88      H      0.739410000000     0.554020000000     0.496020000000     0.0421265  
H89      H      0.756050000000     0.478740000000     0.418570000000     0.0457157  
H90      H      0.577410000000     0.401380000000     0.538180000000     0.106318   
H91      H      0.941720000000     0.669690000000     0.325250000000     0.1073     
H92      H      0.138370000000     0.852880000000     0.385360000000     0.0426679  
H93      H      0.119090000000     0.826940000000     0.433300000000     0.0484081  
H94      H      0.005930000000     0.788740000000     0.307990000000     0.0415911  
H95      H      0.084950000000     0.827450000000     0.329950000000     0.0416064  
H96      H      0.905960000000     0.720550000000     0.374040000000     0.0461778  
H97      H      0.040050000000     0.756160000000     0.442560000000     0.0429246  
H98      H      0.961030000000     0.717420000000     0.420570000000     0.0422227  
H99      H      0.924430000000     0.749300000000     0.327430000000     0.0427863  
H100     H      0.116830000000     0.755000000000     0.375770000000     0.107027   
H101     H      0.606320000000     0.692170000000     0.151310000000     0.106218   
H102     H      0.772120000000     0.645400000000     0.175720000000     0.0481467  
H103     H      0.806580000000     0.707130000000     0.192210000000     0.0419195  
H104     H      0.653330000000     0.645290000000     0.104640000000     0.0406194  
H105     H      0.701320000000     0.620990000000     0.140460000000     0.0412971  
H106     H      0.675000000000     0.773240000000     0.099220000000     0.0497452  
H107     H      0.776010000000     0.765230000000     0.190320000000     0.041835   
H108     H      0.727840000000     0.789450000000     0.154640000000     0.043124   
H109     H      0.645190000000     0.714110000000     0.077690000000     0.0398136  
H110     H      0.732050000000     0.673780000000     0.242270000000     0.106944   
H111     H      0.775940000000     0.457400000000     0.221090000000     0.106955   
H112     H      0.682200000000     0.281780000000     0.090330000000     0.0484534  
H113     H      0.663530000000     0.318580000000     0.065380000000     0.0407083  
H114     H      0.714990000000     0.343880000000     0.219920000000     0.0411846  
H115     H      0.709720000000     0.300740000000     0.158440000000     0.0420669  
H116     H      0.680100000000     0.438040000000     0.230690000000     0.0487295  
H117     H      0.674810000000     0.396100000000     0.096230000000     0.0408786  
H118     H      0.680300000000     0.439380000000     0.157690000000     0.0418312  
H119     H      0.693270000000     0.397770000000     0.256500000000     0.0404108  
H120     H      0.755630000000     0.384020000000     0.071580000000     0.106613   
In1      In     0.787560000000     0.582040000000     0.300620000000     2.40559    
In2      In     0.543290000000     0.788700000000     0.123110000000     2.40353    
In3      In     0.775470000000     0.287760000000     0.980330000000     2.40499    
In4      In     0.232580000000     0.507720000000     0.788820000000     2.40871    
In5      In     0.498060000000     0.291620000000     0.638540000000     2.40082    
In6      In     0.250720000000     0.805520000000     0.443420000000     2.39422    
N1       N      0.327880000000     0.945790000000     0.478750000000    -0.213478   
N2       N      0.447850000000     0.166090000000     0.576250000000    -0.214006   
N3       N      0.272830000000     0.419720000000     0.738190000000    -0.213229   
N4       N      0.398320000000     0.318410000000     0.671620000000    -0.212775   
N5       N      0.212300000000     0.573990000000     0.695570000000    -0.213288   
N6       N      0.219950000000     0.713950000000     0.536480000000    -0.214341   
N7       N      0.116740000000     0.461560000000     0.851200000000    -0.213465   
N8       N      0.906650000000     0.349740000000     0.945640000000    -0.213339   
N9       N      0.556820000000     0.290510000000     0.741510000000    -0.214043   
N10      N      0.705570000000     0.295950000000     0.887480000000    -0.213565   
N11      N      0.474820000000     0.792260000000     0.219480000000    -0.213109   
N12      N      0.323550000000     0.778190000000     0.363450000000    -0.213432   
N13      N      0.626210000000     0.933890000000     0.106760000000    -0.213116   
N14      N      0.755970000000     0.160200000000     0.025610000000    -0.212792   
N15      N      0.456630000000     0.706880000000     0.037150000000    -0.213349   
N16      N      0.326790000000     0.573770000000     0.873710000000    -0.213251   
N17      N      0.729720000000     0.525310000000     0.406170000000    -0.213501   
N18      N      0.589170000000     0.394170000000     0.564250000000    -0.213577   
N19      N      0.916750000000     0.678940000000     0.330990000000    -0.213235   
N20      N      0.134400000000     0.785060000000     0.394310000000    -0.213291   
N21      N      0.616850000000     0.720600000000     0.130900000000    -0.213184   
N22      N      0.753550000000     0.662170000000     0.230640000000    -0.213319   
N23      N      0.750360000000     0.461200000000     0.234850000000    -0.213281   
N24      N      0.733960000000     0.347300000000     0.064590000000    -0.213482   
O1       O      0.803420000000     0.534320000000     0.260730000000    -0.492609   
O2       O      0.734270000000     0.508770000000     0.275240000000    -0.509998   
O3       O      0.841230000000     0.654900000000     0.326320000000    -0.509447   
O4       O      0.791410000000     0.620540000000     0.242740000000    -0.510325   
O5       O      0.784960000000     0.545620000000     0.359250000000    -0.510281   
O6       O      0.750370000000     0.624000000000     0.288630000000    -0.493231   
O7       O      0.862740000000     0.606300000000     0.305120000000    -0.492124   
O8       O      0.732550000000     0.561830000000     0.347370000000    -0.491789   
O9       O      0.520950000000     0.774230000000     0.058860000000    -0.496286   
O10      O      0.478750000000     0.721770000000     0.101650000000    -0.506084   
O11      O      0.601670000000     0.777310000000     0.103610000000    -0.504164   
O12      O      0.606860000000     0.861100000000     0.136990000000    -0.505428   
O13      O      0.487590000000     0.797620000000     0.153080000000    -0.504044   
O14      O      0.562370000000     0.861270000000     0.093260000000    -0.49562    
O15      O      0.558290000000     0.731970000000     0.149480000000    -0.497562   
O16      O      0.531070000000     0.784220000000     0.189290000000    -0.497605   
O17      O      0.763610000000     0.330140000000     0.932000000000    -0.509645   
O18      O      0.717960000000     0.253540000000     0.935620000000    -0.493218   
O19      O      0.785420000000     0.243230000000     0.028000000000    -0.5088     
O20      O      0.831080000000     0.295130000000     0.938060000000    -0.507752   
O21      O      0.785210000000     0.350960000000     0.019250000000    -0.495059   
O22      O      0.850810000000     0.341450000000     0.988200000000    -0.495474   
O23      O      0.746790000000     0.205270000000     0.977750000000    -0.493325   
O24      O      0.723360000000     0.283480000000     0.025180000000    -0.507858   
O25      O      0.270540000000     0.505890000000     0.843160000000    -0.512095   
O26      O      0.289240000000     0.575520000000     0.818660000000    -0.491577   
O27      O      0.225060000000     0.432940000000     0.777430000000    -0.494352   
O28      O      0.162480000000     0.448580000000     0.809520000000    -0.492195   
O29      O      0.253070000000     0.573800000000     0.748790000000    -0.492051   
O30      O      0.186910000000     0.521170000000     0.830010000000    -0.510586   
O31      O      0.279860000000     0.494500000000     0.749350000000    -0.510441   
O32      O      0.192070000000     0.507900000000     0.735740000000    -0.511673   
O33      O      0.520830000000     0.254950000000     0.684000000000    -0.503567   
O34      O      0.533320000000     0.326680000000     0.696080000000    -0.505541   
O35      O      0.439660000000     0.221930000000     0.612660000000    -0.502279   
O36      O      0.432820000000     0.271990000000     0.671680000000    -0.499925   
O37      O      0.569870000000     0.349870000000     0.621560000000    -0.505787   
O38      O      0.463810000000     0.338040000000     0.638360000000    -0.498145   
O39      O      0.506710000000     0.235550000000     0.602720000000    -0.503416   
O40      O      0.516900000000     0.336270000000     0.581580000000    -0.498834   
O41      O      0.202260000000     0.737080000000     0.478310000000    -0.506001   
O42      O      0.268190000000     0.782490000000     0.501550000000    -0.500336   
O43      O      0.197310000000     0.827880000000     0.432880000000    -0.501555   
O44      O      0.265130000000     0.869750000000     0.483470000000    -0.495145   
O45      O      0.293610000000     0.771760000000     0.425220000000    -0.50532    
O46      O      0.312700000000     0.881720000000     0.437900000000    -0.504794   
O47      O      0.188420000000     0.763620000000     0.404610000000    -0.497321   
O48      O      0.279860000000     0.811110000000     0.381770000000    -0.496554   


