data_structure

_audit_creation_method RASPA-1.0
_audit_creation_date 2023-5-22
_audit_author_name 'Poobodin Mano'

_cell_length_a    37.8735
_cell_length_b    30.5759
_cell_length_c    33.357
_cell_angle_alpha 90
_cell_angle_beta  90
_cell_angle_gamma 90
_cell_volume      38628

_symmetry_cell_setting          triclinic
_symmetry_space_group_name_Hall 'P 1'
_symmetry_space_group_name_H-M  'P 1'
_symmetry_Int_Tables_number     1

_symmetry_equiv_pos_as_xyz 'x,y,z'

loop_
_atom_site_label
_atom_site_type_symbol
_atom_site_fract_x
_atom_site_fract_y
_atom_site_fract_z
_atom_site_charge
C1       C      0.886380000000     0.487740000000     0.931160000000     0.4153     
C2       C      0.795850000000     0.485430000000     0.858270000000     0.415283   
C3       C      0.889690000000     0.379640000000     0.857450000000     0.415455   
C4       C      0.797090000000     0.375600000000     0.930090000000     0.41583    
C5       C      0.037440000000     0.676450000000     0.090820000000     0.415853   
C6       C      0.114620000000     0.778070000000     0.100070000000     0.414901   
C7       C      0.024900000000     0.745700000000     0.196150000000     0.415408   
C8       C      0.127930000000     0.688630000000     0.190370000000     0.416203   
C9       C      0.273160000000     0.921180000000     0.923280000000     0.41508    
C10      C      0.299960000000     0.994540000000     0.818210000000     0.41743    
C11      C      0.378500000000     0.969230000000     0.924510000000     0.416035   
C12      C      0.359870000000     0.878100000000     0.831170000000     0.415396   
C13      C      0.622040000000     0.217920000000     0.084720000000     0.421319   
C14      C      0.610070000000     0.142310000000     0.197520000000     0.416817   
C15      C      0.531160000000     0.241600000000     0.166830000000     0.422607   
C16      C      0.537710000000     0.120810000000     0.096530000000     0.416894   
C17      C      0.291470000000     0.515600000000     0.339660000000     0.414409   
C18      C      0.282270000000     0.415050000000     0.419900000000     0.416415   
C19      C      0.368770000000     0.416210000000     0.315130000000     0.41632    
C20      C      0.385480000000     0.473340000000     0.425420000000     0.414837   
C21      C      0.631950000000     0.642850000000     0.694390000000     0.415659   
C22      C      0.541740000000     0.613000000000     0.602150000000     0.415692   
C23      C      0.527570000000     0.704890000000     0.688490000000     0.41624    
C24      C      0.618380000000     0.719850000000     0.593230000000     0.415439   
C25      C      0.762220000000     0.910540000000     0.433320000000     0.41597    
C26      C      0.792240000000     0.007040000000     0.355290000000     0.415944   
C27      C      0.865000000000     0.982220000000     0.461240000000     0.415601   
C28      C      0.867420000000     0.892480000000     0.370260000000     0.415813   
C29      C      0.052570000000     0.233540000000     0.684910000000     0.418532   
C30      C      0.151620000000     0.161460000000     0.650630000000     0.419276   
C31      C      0.043210000000     0.135250000000     0.598470000000     0.418427   
C32      C      0.111780000000     0.250890000000     0.568140000000     0.418647   
C33      C      0.959160000000     0.987900000000     0.542130000000    -0.0408605  
C34      C      0.894460000000     0.977090000000     0.527000000000    -0.016723   
C35      C      0.979040000000     0.043410000000     0.589130000000     0.0151999  
C36      C      0.923890000000     0.999810000000     0.549090000000     0.0156483  
C37      C      0.008580000000     0.068030000000     0.609210000000    -0.015893   
C38      C      0.916400000000     0.033970000000     0.575900000000    -0.0414753  
C39      C      0.943800000000     0.055710000000     0.595680000000    -0.0404503  
C40      C      0.986550000000     0.009640000000     0.561930000000    -0.0410726  
C41      C      0.646400000000     0.790000000000     0.484160000000    -0.0403448  
C42      C      0.653160000000     0.725910000000     0.531140000000    -0.0170716  
C43      C      0.697270000000     0.824910000000     0.453340000000     0.0169244  
C44      C      0.668690000000     0.761040000000     0.504810000000     0.0156914  
C45      C      0.712860000000     0.858240000000     0.425190000000    -0.0182745  
C46      C      0.705400000000     0.764590000000     0.499920000000    -0.0419206  
C47      C      0.719570000000     0.796260000000     0.474330000000    -0.0393409  
C48      C      0.660580000000     0.821810000000     0.458720000000    -0.0429348  
C49      C      0.179390000000     0.393340000000     0.474020000000    -0.0398621  
C50      C      0.243290000000     0.415890000000     0.478930000000    -0.0164467  
C51      C      0.151580000000     0.348680000000     0.525370000000     0.0172659  
C52      C      0.211640000000     0.391450000000     0.494690000000     0.0151368  
C53      C      0.119510000000     0.326290000000     0.542460000000    -0.0182902  
C54      C      0.213780000000     0.367500000000     0.530520000000    -0.0416896  
C55      C      0.183960000000     0.346290000000     0.545740000000    -0.0396413  
C56      C      0.149600000000     0.371970000000     0.489140000000    -0.0430677  
C57      C      0.489160000000     0.477460000000     0.496570000000    -0.0415136  
C58      C      0.428850000000     0.450030000000     0.476260000000    -0.0167358  
C59      C      0.498720000000     0.512960000000     0.560840000000     0.0154137  
C60      C      0.453390000000     0.471220000000     0.506010000000     0.0154962  
C61      C      0.522550000000     0.537290000000     0.589270000000    -0.0164527  
C62      C      0.440380000000     0.486310000000     0.542910000000    -0.0408416  
C63      C      0.462870000000     0.507150000000     0.570090000000    -0.0412456  
C64      C      0.511650000000     0.498300000000     0.523760000000    -0.0409678  
C65      C      0.698730000000     0.081140000000     0.226740000000    -0.0383493  
C66      C      0.632360000000     0.075340000000     0.230820000000    -0.0192727  
C67      C      0.736960000000     0.042580000000     0.273420000000     0.0173322  
C68      C      0.668740000000     0.064470000000     0.246230000000     0.0172622  
C69      C      0.773370000000     0.029370000000     0.287100000000    -0.0190626  
C70      C      0.673140000000     0.036360000000     0.279150000000    -0.0439702  
C71      C      0.706970000000     0.025300000000     0.292480000000    -0.0378815  
C72      C      0.732550000000     0.070380000000     0.240270000000    -0.0434989  
C73      C      0.445290000000     0.346850000000     0.175980000000    -0.0410327  
C74      C      0.506600000000     0.316160000000     0.165970000000    -0.0161447  
C75      C      0.431790000000     0.395030000000     0.231870000000     0.0154864  
C76      C      0.480370000000     0.343210000000     0.189170000000     0.0156241  
C77      C      0.405870000000     0.422800000000     0.254760000000    -0.0165751  
C78      C      0.490780000000     0.364860000000     0.224340000000    -0.0412429  
C79      C      0.466620000000     0.390470000000     0.245620000000    -0.0404637  
C80      C      0.421140000000     0.372500000000     0.197250000000    -0.0413479  
C81      C      0.284970000000     0.094050000000     0.711370000000    -0.0416148  
C82      C      0.303670000000     0.061970000000     0.777990000000    -0.0172985  
C83      C      0.234770000000     0.143290000000     0.706490000000     0.016191   
C84      C      0.279540000000     0.089940000000     0.752850000000     0.0158722  
C85      C      0.210350000000     0.171090000000     0.681570000000    -0.0168498  
C86      C      0.251290000000     0.112240000000     0.770860000000    -0.0406566  
C87      C      0.228940000000     0.138530000000     0.747820000000    -0.0406457  
C88      C      0.262690000000     0.120480000000     0.688350000000    -0.0417229  
C89      C      0.395000000000     0.749390000000     0.765330000000    -0.0424197  
C90      C      0.373630000000     0.800190000000     0.820030000000    -0.0175754  
C91      C      0.455900000000     0.724400000000     0.763190000000     0.0147094  
C92      C      0.402310000000     0.774170000000     0.799790000000     0.0163316  
C93      C      0.484570000000     0.697930000000     0.743430000000    -0.0156799  
C94      C      0.436750000000     0.774550000000     0.815340000000    -0.040864   
C95      C      0.463400000000     0.749990000000     0.797070000000    -0.040874   
C96      C      0.421640000000     0.724750000000     0.747110000000    -0.0405979  
C97      C      0.481990000000     0.006170000000     0.970680000000    -0.0408226  
C98      C      0.430530000000     0.954030000000     0.966610000000    -0.0164689  
C99      C      0.508480000000     0.026020000000     0.034470000000     0.015312   
C100     C      0.457660000000     0.979030000000     0.990420000000     0.0150542  
C101     C      0.535010000000     0.051980000000     0.058260000000    -0.0161164  
C102     C      0.458810000000     0.975720000000     0.032390000000    -0.0416025  
C103     C      0.484050000000     0.999060000000     0.054250000000    -0.0413353  
C104     C      0.507070000000     0.029710000000     0.992560000000    -0.041219   
C105     C      0.973590000000     0.767390000000     0.315620000000    -0.0408752  
C106     C      0.983920000000     0.726770000000     0.250810000000    -0.0166867  
C107     C      0.915250000000     0.793520000000     0.334230000000     0.0151437  
C108     C      0.959950000000     0.749980000000     0.279890000000     0.0155445  
C109     C      0.891540000000     0.818080000000     0.362610000000    -0.016248   
C110     C      0.923910000000     0.755050000000     0.271240000000    -0.0415832  
C111     C      0.901740000000     0.776790000000     0.298170000000    -0.0405018  
C112     C      0.951410000000     0.789120000000     0.342550000000    -0.0414404  
C113     C      0.172340000000     0.915100000000     0.995660000000    -0.0413948  
C114     C      0.234140000000     0.940670000000     0.979670000000    -0.016993   
C115     C      0.159020000000     0.876660000000     0.057600000000     0.0155467  
C116     C      0.207990000000     0.918270000000     0.006830000000     0.0157044  
C117     C      0.133090000000     0.853410000000     0.084410000000    -0.0166805  
C118     C      0.219070000000     0.899940000000     0.043310000000    -0.041024   
C119     C      0.194760000000     0.879210000000     0.068480000000    -0.0409366  
C120     C      0.148050000000     0.894280000000     0.020790000000    -0.0411409  
C121     C      0.256200000000     0.642320000000     0.276480000000    -0.0415088  
C122     C      0.272600000000     0.592370000000     0.333880000000    -0.017006   
C123     C      0.196460000000     0.670110000000     0.268880000000     0.0148998  
C124     C      0.246030000000     0.619120000000     0.310920000000     0.0158472  
C125     C      0.169890000000     0.697060000000     0.246150000000    -0.0156883  
C126     C      0.210750000000     0.620910000000     0.323730000000    -0.041337   
C127     C      0.186100000000     0.646090000000     0.302760000000    -0.0407024  
C128     C      0.231550000000     0.667560000000     0.255550000000    -0.0408768  
C129     C      0.020790000000     0.308440000000     0.800780000000    -0.0415692  
C130     C      0.043070000000     0.246900000000     0.756930000000    -0.0165178  
C131     C      0.964030000000     0.303750000000     0.834500000000     0.0151255  
C132     C      0.015460000000     0.266970000000     0.783740000000     0.0153177  
C133     C      0.936410000000     0.323800000000     0.861290000000    -0.016154   
C134     C      0.983970000000     0.244370000000     0.791710000000    -0.0408797  
C135     C      0.958360000000     0.262700000000     0.816780000000    -0.0414293  
C136     C      0.995220000000     0.326730000000     0.825920000000    -0.0404556  
C137     C      0.666340000000     0.306180000000     0.980880000000    -0.041661   
C138     C      0.636440000000     0.243320000000     0.016640000000    -0.0164381  
C139     C      0.723840000000     0.297310000000     0.949540000000     0.0152787  
C140     C      0.667210000000     0.262570000000     0.994040000000     0.0152919  
C141     C      0.753630000000     0.315910000000     0.924930000000    -0.0166787  
C142     C      0.696840000000     0.236670000000     0.985310000000    -0.0409876  
C143     C      0.725020000000     0.253960000000     0.963370000000    -0.0419569  
C144     C      0.694440000000     0.323400000000     0.958770000000    -0.0401876  
C145     C      0.674180000000     0.590810000000     0.804460000000    -0.0406876  
C146     C      0.667670000000     0.653060000000     0.755470000000    -0.0171114  
C147     C      0.730650000000     0.573380000000     0.835100000000     0.0147899  
C148     C      0.689830000000     0.625190000000     0.782950000000     0.0156298  
C149     C      0.752700000000     0.545450000000     0.862610000000    -0.0158468  
C150     C      0.726130000000     0.633150000000     0.787340000000    -0.0422128  
C151     C      0.746400000000     0.607390000000     0.813210000000    -0.0405325  
C152     C      0.694470000000     0.564930000000     0.830190000000    -0.0413161  
C153     C      0.925400000000     0.607950000000     0.982230000000    -0.0405698  
C154     C      0.926410000000     0.551020000000     0.927500000000    -0.0165726  
C155     C      0.979240000000     0.642640000000     0.005910000000     0.0153253  
C156     C      0.945020000000     0.582130000000     0.955470000000     0.0153599  
C157     C      0.997710000000     0.675310000000     0.032440000000    -0.0162212  
C158     C      0.981920000000     0.586550000000     0.954350000000    -0.0417569  
C159     C      0.998880000000     0.616620000000     0.979360000000    -0.040643   
C160     C      0.942400000000     0.637780000000     0.007440000000    -0.0415668  
H1       H      0.009500000000     0.109400000000     0.555860000000     0.107094   
H2       H      0.901610000000     0.942420000000     0.520840000000     0.0463572  
H3       H      0.869970000000     0.976850000000     0.545410000000     0.0454997  
H4       H      0.013620000000     0.000260000000     0.555900000000     0.0425336  
H5       H      0.965480000000     0.962020000000     0.521150000000     0.0419192  
H6       H      0.000200000000     0.079490000000     0.639420000000     0.0456923  
H7       H      0.889380000000     0.044010000000     0.581240000000     0.0427004  
H8       H      0.937530000000     0.082260000000     0.615980000000     0.0421853  
H9       H      0.031600000000     0.046120000000     0.614300000000     0.0456203  
H10      H      0.898710000000     0.029750000000     0.483050000000     0.107159   
H11      H      0.722480000000     0.902130000000     0.475240000000     0.105556   
H12      H      0.632470000000     0.707960000000     0.514100000000     0.0480833  
H13      H      0.673450000000     0.701500000000     0.540120000000     0.0440417  
H14      H      0.642870000000     0.843700000000     0.442980000000     0.040443   
H15      H      0.618020000000     0.787760000000     0.487610000000     0.0438592  
H16      H      0.730140000000     0.841270000000     0.403160000000     0.0521141  
H17      H      0.723090000000     0.742640000000     0.515600000000     0.0414349  
H18      H      0.747950000000     0.798280000000     0.470670000000     0.0458541  
H19      H      0.691710000000     0.874730000000     0.407700000000     0.0381125  
H20      H      0.640320000000     0.778020000000     0.573580000000     0.10614    
H21      H      0.134120000000     0.265560000000     0.513120000000     0.106583   
H22      H      0.235530000000     0.450200000000     0.472120000000     0.0463393  
H23      H      0.264770000000     0.417380000000     0.501640000000     0.0437516  
H24      H      0.124960000000     0.373980000000     0.472770000000     0.0414434  
H25      H      0.177270000000     0.411590000000     0.446280000000     0.0430258  
H26      H      0.115900000000     0.336760000000     0.574140000000     0.0524755  
H27      H      0.238420000000     0.365510000000     0.546900000000     0.0410639  
H28      H      0.186030000000     0.328230000000     0.573590000000     0.0446347  
H29      H      0.095360000000     0.336410000000     0.525950000000     0.0408526  
H30      H      0.247480000000     0.364900000000     0.433250000000     0.10694    
H31      H      0.506690000000     0.596370000000     0.557170000000     0.105971   
H32      H      0.443520000000     0.426780000000     0.456750000000     0.0431132  
H33      H      0.408040000000     0.431040000000     0.492140000000     0.0471942  
H34      H      0.539080000000     0.503260000000     0.515780000000     0.0427156  
H35      H      0.499570000000     0.466580000000     0.468020000000     0.0414857  
H36      H      0.514190000000     0.531740000000     0.620840000000     0.0455908  
H37      H      0.412760000000     0.482310000000     0.550480000000     0.0424148  
H38      H      0.452270000000     0.519020000000     0.598220000000     0.0416474  
H39      H      0.550040000000     0.524690000000     0.587110000000     0.047289   
H40      H      0.421030000000     0.515630000000     0.451990000000     0.106477   
H41      H      0.768900000000     0.066600000000     0.342220000000     0.106034   
H42      H      0.629060000000     0.059750000000     0.200930000000     0.0529947  
H43      H      0.611680000000     0.061770000000     0.250930000000     0.0394075  
H44      H      0.755270000000     0.083520000000     0.224650000000     0.0414018  
H45      H      0.695930000000     0.102350000000     0.200920000000     0.0460338  
H46      H      0.777830000000     0.994540000000     0.278950000000     0.0537768  
H47      H      0.650420000000     0.022620000000     0.294330000000     0.0404605  
H48      H      0.709770000000     0.003140000000     0.317620000000     0.0443712  
H49      H      0.793730000000     0.049120000000     0.271340000000     0.0406664  
H50      H      0.637490000000     0.142500000000     0.251210000000     0.106079   
H51      H      0.387700000000     0.362810000000     0.283610000000     0.106954   
H52      H      0.499050000000     0.314340000000     0.133770000000     0.0456091  
H53      H      0.533240000000     0.331420000000     0.167420000000     0.0453925  
H54      H      0.394200000000     0.375000000000     0.186570000000     0.0422988  
H55      H      0.436640000000     0.329960000000     0.149180000000     0.042579   
H56      H      0.419680000000     0.450950000000     0.268960000000     0.0476405  
H57      H      0.517630000000     0.362010000000     0.235240000000     0.0426816  
H58      H      0.475160000000     0.406990000000     0.272660000000     0.0421191  
H59      H      0.386110000000     0.437220000000     0.233940000000     0.0430886  
H60      H      0.492510000000     0.262540000000     0.206210000000     0.107411   
H61      H      0.187210000000     0.110900000000     0.658500000000     0.105954   
H62      H      0.328190000000     0.053410000000     0.761410000000     0.0454692  
H63      H      0.311740000000     0.080500000000     0.805210000000     0.0491955  
H64      H      0.267230000000     0.123170000000     0.656380000000     0.0415109  
H65      H      0.306430000000     0.076850000000     0.696820000000     0.0415878  
H66      H      0.198600000000     0.197600000000     0.700140000000     0.0499455  
H67      H      0.246550000000     0.109200000000     0.802770000000     0.0434371  
H68      H      0.207180000000     0.155280000000     0.762250000000     0.043341   
H69      H      0.225540000000     0.187600000000     0.657400000000     0.0401511  
H70      H      0.261830000000     0.012800000000     0.777090000000     0.105547   
H71      H      0.491770000000     0.753470000000     0.703040000000     0.106909   
H72      H      0.347050000000     0.788290000000     0.810970000000     0.0437171  
H73      H      0.375730000000     0.796220000000     0.853120000000     0.0508442  
H74      H      0.415520000000     0.705780000000     0.720580000000     0.0417675  
H75      H      0.368690000000     0.749000000000     0.752620000000     0.041431   
H76      H      0.505180000000     0.688620000000     0.765630000000     0.0456053  
H77      H      0.442950000000     0.793830000000     0.841660000000     0.0438043  
H78      H      0.489810000000     0.750730000000     0.809510000000     0.0420016  
H79      H      0.473580000000     0.666630000000     0.731880000000     0.0437883  
H80      H      0.391250000000     0.856060000000     0.784590000000     0.105431   
H81      H      0.491040000000     0.094130000000     0.075680000000     0.105885   
H82      H      0.443880000000     0.936210000000     0.941790000000     0.0451179  
H83      H      0.416920000000     0.929140000000     0.985390000000     0.0438747  
H84      H      0.525400000000     0.050760000000     0.976770000000     0.0417294  
H85      H      0.481380000000     0.009290000000     0.938330000000     0.0430477  
H86      H      0.546660000000     0.031060000000     0.082110000000     0.0450497  
H87      H      0.440170000000     0.955170000000     0.048240000000     0.0406766  
H88      H      0.484460000000     0.996250000000     0.086620000000     0.0422221  
H89      H      0.557470000000     0.062470000000     0.039010000000     0.0468722  
H90      H      0.405080000000     0.017150000000     0.956110000000     0.106595   
H91      H      0.907690000000     0.877200000000     0.330820000000     0.106499   
H92      H      0.005480000000     0.709650000000     0.267170000000     0.0469578  
H93      H      0.969010000000     0.701550000000     0.233740000000     0.0435241  
H94      H      0.962450000000     0.802570000000     0.369850000000     0.0412591  
H95      H      0.001410000000     0.764270000000     0.322580000000     0.0422332  
H96      H      0.864410000000     0.804100000000     0.362010000000     0.04745    
H97      H      0.912990000000     0.742320000000     0.243590000000     0.0416666  
H98      H      0.874040000000     0.780610000000     0.290870000000     0.0426726  
H99      H      0.900980000000     0.814390000000     0.394000000000     0.0426706  
H100     H      0.990470000000     0.790230000000     0.221640000000     0.106578   
H101     H      0.150480000000     0.793110000000     0.055400000000     0.105704   
H102     H      0.221680000000     0.969750000000     0.965480000000     0.043536   
H103     H      0.257410000000     0.952450000000     0.996960000000     0.0471334  
H104     H      0.120700000000     0.891950000000     0.011530000000     0.0421049  
H105     H      0.163380000000     0.928640000000     0.967420000000     0.0422898  
H106     H      0.139020000000     0.860670000000     0.116390000000     0.0470546  
H107     H      0.246530000000     0.901610000000     0.052270000000     0.0415473  
H108     H      0.203810000000     0.865130000000     0.096450000000     0.0422343  
H109     H      0.105790000000     0.865520000000     0.079090000000     0.0467116  
H110     H      0.232670000000     0.881370000000     0.943200000000     0.106456   
H111     H      0.162970000000     0.640130000000     0.207350000000     0.107084   
H112     H      0.299850000000     0.604780000000     0.328720000000     0.0472146  
H113     H      0.267320000000     0.594810000000     0.366620000000     0.0469771  
H114     H      0.239870000000     0.685240000000     0.229050000000     0.0418125  
H115     H      0.283200000000     0.640950000000     0.265860000000     0.0421543  
H116     H      0.148820000000     0.709080000000     0.266650000000     0.0457029  
H117     H      0.202340000000     0.602830000000     0.349970000000     0.0421694  
H118     H      0.158990000000     0.647030000000     0.313080000000     0.0419284  
H119     H      0.182680000000     0.726830000000     0.233630000000     0.0434404  
H120     H      0.253690000000     0.536460000000     0.299160000000     0.105855   
H121     H      0.915800000000     0.355710000000     0.807590000000     0.107028   
H122     H      0.069410000000     0.261910000000     0.762300000000     0.0446033  
H123     H      0.045530000000     0.211350000000     0.763500000000     0.0461798  
H124     H      0.999770000000     0.358770000000     0.838790000000     0.0423313  
H125     H      0.044740000000     0.326620000000     0.794660000000     0.0416142  
H126     H      0.919810000000     0.297980000000     0.875310000000     0.0436824  
H127     H      0.979240000000     0.212540000000     0.778490000000     0.042218   
H128     H      0.934200000000     0.244790000000     0.822490000000     0.0414806  
H129     H      0.949280000000     0.341480000000     0.886530000000     0.0463131  
H130     H      0.011920000000     0.271880000000     0.706790000000     0.106352   
H131     H      0.771500000000     0.349050000000     0.979230000000     0.10665    
H132     H      0.612770000000     0.264780000000     0.014770000000     0.0460507  
H133     H      0.629100000000     0.211390000000     0.002970000000     0.0449327  
H134     H      0.693190000000     0.357010000000     0.948590000000     0.0430078  
H135     H      0.643800000000     0.326790000000     0.987420000000     0.0414587  
H136     H      0.771620000000     0.289590000000     0.914330000000     0.0425194  
H137     H      0.698020000000     0.203000000000     0.995330000000     0.0420536  
H138     H      0.747560000000     0.233350000000     0.956840000000     0.0407702  
H139     H      0.742700000000     0.331550000000     0.897480000000     0.0477162  
H140     H      0.670370000000     0.244820000000     0.069640000000     0.105439   
H141     H      0.769720000000     0.510440000000     0.808870000000     0.107031   
H142     H      0.643440000000     0.663730000000     0.771610000000     0.0482704  
H143     H      0.682070000000     0.683100000000     0.746170000000     0.0424139  
H144     H      0.681920000000     0.538460000000     0.846390000000     0.0411199  
H145     H      0.646250000000     0.584010000000     0.801230000000     0.0436673  
H146     H      0.771190000000     0.566440000000     0.879990000000     0.0452871  
H147     H      0.738790000000     0.659310000000     0.770820000000     0.0408743  
H148     H      0.774380000000     0.613990000000     0.816220000000     0.042554   
H149     H      0.735880000000     0.528640000000     0.885200000000     0.0437931  
H150     H      0.670420000000     0.599170000000     0.712640000000     0.106149   
H151     H      0.018370000000     0.619280000000     0.065700000000     0.106811   
H152     H      0.906560000000     0.569560000000     0.909730000000     0.0468982  
H153     H      0.945070000000     0.536010000000     0.905730000000     0.0436035  
H154     H      0.926750000000     0.657350000000     0.027860000000     0.0410193  
H155     H      0.896910000000     0.605050000000     0.983450000000     0.0436291  
H156     H      0.015630000000     0.695920000000     0.013980000000     0.0457551  
H157     H      0.997580000000     0.567010000000     0.933920000000     0.0408929  
H158     H      0.027340000000     0.619770000000     0.977910000000     0.0435145  
H159     H      0.978510000000     0.698220000000     0.046470000000     0.0445795  
H160     H      0.912320000000     0.512940000000     0.980620000000     0.106569   
In1      In     0.842240000000     0.431550000000     0.894370000000     2.41151    
In2      In     0.076050000000     0.721990000000     0.144330000000     2.40948    
In3      In     0.327560000000     0.940960000000     0.874280000000     2.39701    
In4      In     0.575650000000     0.181360000000     0.136360000000     2.39493    
In5      In     0.332100000000     0.454430000000     0.374910000000     2.40917    
In6      In     0.580440000000     0.670510000000     0.644620000000     2.40535    
In7      In     0.821690000000     0.948170000000     0.405270000000     2.40538    
In8      In     0.089680000000     0.195190000000     0.625530000000     2.4038     
N1       N      0.019670000000     0.105410000000     0.584800000000    -0.213491   
N2       N      0.887040000000     0.999430000000     0.489070000000    -0.213165   
N3       N      0.732410000000     0.891590000000     0.447610000000    -0.213305   
N4       N      0.637220000000     0.744710000000     0.567280000000    -0.213484   
N5       N      0.123130000000     0.278720000000     0.539240000000    -0.212783   
N6       N      0.257010000000     0.395440000000     0.442370000000    -0.213569   
N7       N      0.522240000000     0.584260000000     0.580610000000    -0.213001   
N8       N      0.412160000000     0.483240000000     0.450900000000    -0.213399   
N9       N      0.777370000000     0.036750000000     0.330290000000    -0.212758   
N10      N      0.627570000000     0.122840000000     0.228150000000    -0.213168   
N11      N      0.387390000000     0.396990000000     0.285240000000    -0.213279   
N12      N      0.508700000000     0.271720000000     0.182210000000    -0.213827   
N13      N      0.182650000000     0.144250000000     0.663290000000    -0.213269   
N14      N      0.285890000000     0.021560000000     0.790260000000    -0.213404   
N15      N      0.500880000000     0.722180000000     0.710400000000    -0.213323   
N16      N      0.376490000000     0.846630000000     0.809670000000    -0.212582   
N17      N      0.518490000000     0.090330000000     0.076740000000    -0.2128     
N18      N      0.404190000000     0.983720000000     0.949440000000    -0.213761   
N19      N      0.890330000000     0.864630000000     0.352330000000    -0.213435   
N20      N      0.999370000000     0.757830000000     0.222330000000    -0.213488   
N21      N      0.134200000000     0.806070000000     0.077790000000    -0.212952   
N22      N      0.245890000000     0.910990000000     0.947870000000    -0.213306   
N23      N      0.154000000000     0.671800000000     0.213500000000    -0.213506   
N24      N      0.270950000000     0.546310000000     0.321930000000    -0.212862   
N25      N      0.913730000000     0.353880000000     0.838820000000    -0.213501   
N26      N      0.033670000000     0.252590000000     0.714650000000    -0.213939   
N27      N      0.774140000000     0.347790000000     0.948030000000    -0.213601   
N28      N      0.645400000000     0.236110000000     0.058860000000    -0.214684   
N29      N      0.772790000000     0.512790000000     0.839970000000    -0.213276   
N30      N      0.657540000000     0.628510000000     0.719540000000    -0.213729   
N31      N      0.018140000000     0.653450000000     0.063900000000    -0.213418   
N32      N      0.908360000000     0.516240000000     0.949720000000    -0.213312   
O1       O      0.814710000000     0.403270000000     0.949700000000    -0.494077   
O2       O      0.802230000000     0.375810000000     0.892730000000    -0.512375   
O3       O      0.800990000000     0.485870000000     0.895650000000    -0.510727   
O4       O      0.880580000000     0.488990000000     0.893930000000    -0.511248   
O5       O      0.885240000000     0.379260000000     0.894930000000    -0.511326   
O6       O      0.870140000000     0.458200000000     0.950070000000    -0.492533   
O7       O      0.813850000000     0.457890000000     0.838920000000    -0.492198   
O8       O      0.870250000000     0.405860000000     0.838380000000    -0.493396   
O9       O      0.115620000000     0.726530000000     0.195700000000    -0.511303   
O10      O      0.114280000000     0.667350000000     0.161940000000    -0.493592   
O11      O      0.115760000000     0.737270000000     0.094710000000    -0.508562   
O12      O      0.038400000000     0.717690000000     0.091060000000    -0.510584   
O13      O      0.037000000000     0.707310000000     0.194700000000    -0.509966   
O14      O      0.055830000000     0.657940000000     0.117360000000    -0.494095   
O15      O      0.094120000000     0.790810000000     0.127520000000    -0.493246   
O16      O      0.038310000000     0.772250000000     0.171580000000    -0.494227   
O17      O      0.341150000000     0.869620000000     0.861490000000    -0.491298   
O18      O      0.362340000000     0.918070000000     0.822310000000    -0.506239   
O19      O      0.284710000000     0.959890000000     0.829110000000    -0.508771   
O20      O      0.282980000000     0.896070000000     0.895480000000    -0.491942   
O21      O      0.375100000000     0.929480000000     0.915200000000    -0.508142   
O22      O      0.290450000000     0.956240000000     0.926480000000    -0.50752    
O23      O      0.329060000000     0.002220000000     0.835190000000    -0.494844   
O24      O      0.356350000000     0.994790000000     0.908850000000    -0.492343   
O25      O      0.570910000000     0.118900000000     0.099300000000    -0.493441   
O26      O      0.523480000000     0.153070000000     0.113670000000    -0.501505   
O27      O      0.596530000000     0.121070000000     0.169020000000    -0.500704   
O28      O      0.629600000000     0.210920000000     0.120930000000    -0.505125   
O29      O      0.551530000000     0.249790000000     0.137850000000    -0.507433   
O30      O      0.591330000000     0.206770000000     0.074400000000    -0.504995   
O31      O      0.606320000000     0.183210000000     0.195530000000    -0.497137   
O32      O      0.533020000000     0.203250000000     0.180550000000    -0.499108   
O33      O      0.371040000000     0.501980000000     0.403760000000    -0.494299   
O34      O      0.373280000000     0.435160000000     0.421760000000    -0.508542   
O35      O      0.295440000000     0.451600000000     0.429040000000    -0.511682   
O36      O      0.290190000000     0.475860000000     0.329650000000    -0.507127   
O37      O      0.366770000000     0.457150000000     0.319060000000    -0.510999   
O38      O      0.313090000000     0.524660000000     0.367230000000    -0.49338    
O39      O      0.294140000000     0.397980000000     0.388230000000    -0.49407    
O40      O      0.352250000000     0.394250000000     0.341050000000    -0.494741   
O41      O      0.613700000000     0.679410000000     0.588140000000    -0.507159   
O42      O      0.604160000000     0.735700000000     0.624140000000    -0.496326   
O43      O      0.561240000000     0.601350000000     0.630930000000    -0.494861   
O44      O      0.622820000000     0.621490000000     0.663810000000    -0.497431   
O45      O      0.541490000000     0.725250000000     0.659650000000    -0.494794   
O46      O      0.615460000000     0.678150000000     0.699960000000    -0.507506   
O47      O      0.541620000000     0.653420000000     0.594650000000    -0.50608    
O48      O      0.540170000000     0.667430000000     0.695380000000    -0.507676   
O49      O      0.866290000000     0.932520000000     0.361420000000    -0.500851   
O50      O      0.845740000000     0.880300000000     0.396710000000    -0.502076   
O51      O      0.795370000000     0.014010000000     0.392370000000    -0.500128   
O52      O      0.775640000000     0.900410000000     0.399990000000    -0.504585   
O53      O      0.849490000000     0.946080000000     0.466020000000    -0.501904   
O54      O      0.778530000000     0.939640000000     0.452650000000    -0.500569   
O55      O      0.803880000000     0.970670000000     0.343310000000    -0.50172    
O56      O      0.858700000000     0.001390000000     0.428570000000    -0.500161   
O57      O      0.097600000000     0.263840000000     0.600240000000    -0.501801   
O58      O      0.114760000000     0.209990000000     0.564670000000    -0.500968   
O59      O      0.144000000000     0.201370000000     0.654700000000    -0.504729   
O60      O      0.079310000000     0.210070000000     0.691600000000    -0.504104   
O61      O      0.052780000000     0.167470000000     0.577580000000    -0.50113    
O62      O      0.044460000000     0.237990000000     0.648510000000    -0.501715   
O63      O      0.128270000000     0.138420000000     0.633910000000    -0.501146   
O64      O      0.056990000000     0.132900000000     0.632820000000    -0.502262   


