data_structure

_audit_creation_method RASPA-1.0
_audit_creation_date 2023-5-22
_audit_author_name 'Poobodin Mano'

_cell_length_a    33.6821
_cell_length_b    35.2427
_cell_length_c    34.2401
_cell_angle_alpha 90
_cell_angle_beta  90
_cell_angle_gamma 90
_cell_volume      40644.6

_symmetry_cell_setting          triclinic
_symmetry_space_group_name_Hall 'P 1'
_symmetry_space_group_name_H-M  'P 1'
_symmetry_Int_Tables_number     1

_symmetry_equiv_pos_as_xyz 'x,y,z'

loop_
_atom_site_label
_atom_site_type_symbol
_atom_site_fract_x
_atom_site_fract_y
_atom_site_fract_z
_atom_site_charge
C1       C      0.833760000000     0.398210000000     0.826730000000     0.408334   
C2       C      0.923290000000     0.303320000000     0.831270000000     0.412331   
C3       C      0.919810000000     0.402050000000     0.916480000000     0.406214   
C4       C      0.832460000000     0.307270000000     0.916860000000     0.402697   
C5       C      0.081750000000     0.563410000000     0.072040000000     0.412318   
C6       C      0.173600000000     0.562410000000     0.162480000000     0.405927   
C7       C      0.175680000000     0.653210000000     0.072410000000     0.409119   
C8       C      0.083880000000     0.653210000000     0.161020000000     0.406501   
C9       C      0.336900000000     0.813730000000     0.915190000000     0.405481   
C10      C      0.422810000000     0.904950000000     0.912860000000     0.406454   
C11      C      0.423420000000     0.810760000000     0.822000000000     0.41009    
C12      C      0.335410000000     0.902240000000     0.820100000000     0.404271   
C13      C      0.583770000000     0.058170000000     0.077710000000     0.405359   
C14      C      0.667990000000     0.056140000000     0.166340000000     0.406085   
C15      C      0.669840000000     0.154920000000     0.081000000000     0.404536   
C16      C      0.582680000000     0.155360000000     0.165630000000     0.407455   
C17      C      0.330810000000     0.403200000000     0.325030000000     0.402212   
C18      C      0.422760000000     0.315840000000     0.324010000000     0.404809   
C19      C      0.422440000000     0.401730000000     0.416200000000     0.41354    
C20      C      0.328710000000     0.311030000000     0.412400000000     0.409747   
C21      C      0.673830000000     0.556090000000     0.665440000000     0.40605    
C22      C      0.584550000000     0.651640000000     0.663210000000     0.404605   
C23      C      0.680660000000     0.647250000000     0.579810000000     0.405715   
C24      C      0.579480000000     0.561340000000     0.578350000000     0.409784   
C25      C      0.925480000000     0.899500000000     0.410740000000     0.409133   
C26      C      0.836430000000     0.807720000000     0.417610000000     0.40773    
C27      C      0.828990000000     0.895540000000     0.323450000000     0.411946   
C28      C      0.923310000000     0.810800000000     0.321980000000     0.40288    
C29      C      0.168640000000     0.148850000000     0.568760000000     0.408175   
C30      C      0.171240000000     0.063520000000     0.666860000000     0.402174   
C31      C      0.081490000000     0.144770000000     0.669450000000     0.410122   
C32      C      0.085760000000     0.060730000000     0.567870000000     0.40399    
C33      C      0.979830000000     0.908890000000     0.459070000000    -0.0198864  
C34      C      0.035270000000     0.051910000000     0.515420000000    -0.0203769  
C35      C      0.068300000000     0.996630000000     0.542810000000    -0.0205362  
C36      C      0.038080000000     0.984990000000     0.513700000000     0.0141628  
C37      C      0.019400000000     0.016500000000     0.497870000000     0.0138574  
C38      C      0.989290000000     0.012820000000     0.469860000000    -0.0645099  
C39      C      0.947940000000     0.964110000000     0.430270000000    -0.0200833  
C40      C      0.027370000000     0.948060000000     0.502810000000    -0.0650351  
C41      C      0.978820000000     0.975880000000     0.458700000000     0.0138696  
C42      C      0.997180000000     0.944380000000     0.474920000000     0.0142555  
C43      C      0.724670000000     0.656850000000     0.522280000000    -0.0204015  
C44      C      0.798280000000     0.796620000000     0.478960000000    -0.0203362  
C45      C      0.808090000000     0.744420000000     0.433540000000    -0.0202122  
C46      C      0.784240000000     0.731930000000     0.467580000000     0.0139496  
C47      C      0.778610000000     0.761680000000     0.493500000000     0.0138398  
C48      C      0.756280000000     0.757100000000     0.527740000000    -0.0647617  
C49      C      0.714660000000     0.708940000000     0.567790000000    -0.0203964  
C50      C      0.767920000000     0.695970000000     0.474430000000    -0.0649772  
C51      C      0.740040000000     0.721090000000     0.534640000000     0.0137621  
C52      C      0.745720000000     0.691370000000     0.508700000000     0.0141036  
C53      C      0.266770000000     0.298570000000     0.450000000000    -0.0201308  
C54      C      0.227500000000     0.159300000000     0.526030000000    -0.020109   
C55      C      0.179680000000     0.210300000000     0.534630000000    -0.0202292  
C56      C      0.213030000000     0.222840000000     0.509480000000     0.0140734  
C57      C      0.240400000000     0.193820000000     0.504710000000     0.0139177  
C58      C      0.275220000000     0.199060000000     0.482960000000    -0.0647434  
C59      C      0.315250000000     0.247980000000     0.442400000000    -0.020128   
C60      C      0.218740000000     0.258590000000     0.492470000000    -0.0648806  
C61      C      0.280980000000     0.234840000000     0.466010000000     0.0138799  
C62      C      0.253420000000     0.263750000000     0.470490000000     0.0139315  
C63      C      0.462160000000     0.460410000000     0.426620000000    -0.0197705  
C64      C      0.537990000000     0.503480000000     0.569060000000    -0.0201193  
C65      C      0.544350000000     0.548680000000     0.515790000000    -0.0199742  
C66      C      0.520420000000     0.515470000000     0.503470000000     0.0140729  
C67      C      0.516630000000     0.489740000000     0.533880000000     0.0138735  
C68      C      0.495480000000     0.455760000000     0.529330000000    -0.0647029  
C69      C      0.454720000000     0.415590000000     0.480120000000    -0.019944   
C70      C      0.503570000000     0.508550000000     0.466740000000    -0.0648433  
C71      C      0.478450000000     0.448930000000     0.492630000000     0.0139398  
C72      C      0.482530000000     0.474540000000     0.462160000000     0.0140515  
C73      C      0.727450000000     0.015250000000     0.175250000000    -0.0201446  
C74      C      0.765760000000     0.930760000000     0.312480000000    -0.0199226  
C75      C      0.815480000000     0.929160000000     0.261010000000    -0.0199334  
C76      C      0.780790000000     0.952160000000     0.248840000000     0.0141649  
C77      C      0.752540000000     0.953370000000     0.278270000000     0.0138126  
C78      C      0.717470000000     0.974450000000     0.274160000000    -0.0646277  
C79      C      0.678490000000     0.018770000000     0.227320000000    -0.0203852  
C80      C      0.775320000000     0.971430000000     0.213470000000    -0.0649295  
C81      C      0.712090000000     0.993890000000     0.238820000000     0.013827   
C82      C      0.740110000000     0.992160000000     0.209210000000     0.0140853  
C83      C      0.517690000000     0.184720000000     0.181970000000    -0.0201782  
C84      C      0.489300000000     0.291260000000     0.304460000000    -0.0203547  
C85      C      0.430740000000     0.270930000000     0.268580000000    -0.0200056  
C86      C      0.466860000000     0.252540000000     0.252720000000     0.0142924  
C87      C      0.500270000000     0.263900000000     0.273290000000     0.0139726  
C88      C      0.538040000000     0.249560000000     0.264360000000    -0.0646267  
C89      C      0.576290000000     0.203550000000     0.218640000000    -0.0202628  
C90      C      0.469350000000     0.226610000000     0.221820000000    -0.0649896  
C91      C      0.540510000000     0.223480000000     0.233510000000     0.0138538  
C92      C      0.507100000000     0.212530000000     0.212710000000     0.0142888  
C93      C      0.271000000000     0.916620000000     0.787770000000    -0.0204492  
C94      C      0.235810000000     0.049910000000     0.699520000000    -0.0205615  
C95      C      0.180620000000     0.006250000000     0.708290000000    -0.0203382  
C96      C      0.216680000000     0.991800000000     0.728170000000     0.0140565  
C97      C      0.248100000000     0.016800000000     0.723420000000     0.0140962  
C98      C      0.285540000000     0.009390000000     0.739610000000    -0.0647164  
C99      C      0.325790000000     0.961020000000     0.780750000000    -0.0203716  
C100     C      0.221070000000     0.957760000000     0.748860000000    -0.0649306  
C101     C      0.289850000000     0.975470000000     0.760580000000     0.0137763  
C102     C      0.258550000000     0.950250000000     0.764830000000     0.014163   
C103     C      0.521590000000     0.687410000000     0.674140000000    -0.020305   
C104     C      0.485880000000     0.775160000000     0.809860000000    -0.0200591  
C105     C      0.433220000000     0.772630000000     0.761350000000    -0.0200613  
C106     C      0.468190000000     0.750330000000     0.748240000000     0.0136268  
C107     C      0.498190000000     0.751900000000     0.775920000000     0.0143203  
C108     C      0.534480000000     0.733290000000     0.770320000000    -0.0650676  
C109     C      0.574150000000     0.690770000000     0.722690000000    -0.0201243  
C110     C      0.472800000000     0.729840000000     0.713410000000    -0.0645321  
C111     C      0.539120000000     0.712930000000     0.735500000000     0.0143729  
C112     C      0.509120000000     0.711130000000     0.707830000000     0.013747   
C113     C      0.525960000000     0.015250000000     0.067770000000    -0.0202304  
C114     C      0.481100000000     0.947200000000     0.923040000000    -0.0202848  
C115     C      0.436470000000     0.934830000000     0.977390000000    -0.0202445  
C116     C      0.470050000000     0.959190000000     0.989980000000     0.0137477  
C117     C      0.495450000000     0.966290000000     0.958970000000     0.0141684  
C118     C      0.529570000000     0.988620000000     0.963490000000    -0.0650981  
C119     C      0.570320000000     0.027990000000     0.013290000000    -0.0204944  
C120     C      0.477430000000     0.973910000000     0.027300000000    -0.0646337  
C121     C      0.536920000000     0.003390000000     0.000790000000     0.0143408  
C122     C      0.511590000000     0.996180000000     0.031840000000     0.0137613  
C123     C      0.989760000000     0.789580000000     0.298660000000    -0.0200931  
C124     C      0.017560000000     0.675840000000     0.183090000000    -0.0201779  
C125     C      0.076980000000     0.703830000000     0.211330000000    -0.0199695  
C126     C      0.040800000000     0.721030000000     0.228550000000     0.0140009  
C127     C      0.006920000000     0.705090000000     0.212420000000     0.0141178  
C128     C      0.968880000000     0.716540000000     0.224040000000    -0.0648404  
C129     C      0.930390000000     0.761720000000     0.270180000000    -0.0202769  
C130     C      0.038510000000     0.749280000000     0.257280000000    -0.0646868  
C131     C      0.966590000000     0.744830000000     0.252710000000     0.0142899  
C132     C      0.000450000000     0.760730000000     0.268910000000     0.0137937  
C133     C      0.274980000000     0.801530000000     0.952720000000    -0.0201955  
C134     C      0.239430000000     0.666570000000     0.038110000000    -0.0201867  
C135     C      0.186690000000     0.713660000000     0.036460000000    -0.0200476  
C136     C      0.221880000000     0.727220000000     0.014490000000     0.0141311  
C137     C      0.251880000000     0.700290000000     0.015220000000     0.0138938  
C138     C      0.288040000000     0.706270000000     0.995880000000    -0.0647496  
C139     C      0.327250000000     0.753940000000     0.952920000000    -0.0202874  
C140     C      0.226490000000     0.761780000000     0.994800000000    -0.064988   
C141     C      0.292590000000     0.740790000000     0.976030000000     0.0138948  
C142     C      0.262730000000     0.767860000000     0.975700000000     0.0141918  
C143     C      0.283100000000     0.456640000000     0.316690000000    -0.0203821  
C144     C      0.220890000000     0.508750000000     0.171080000000    -0.0202393  
C145     C      0.197970000000     0.543300000000     0.228260000000    -0.0202304  
C146     C      0.225770000000     0.512620000000     0.239750000000     0.0138641  
C147     C      0.238890000000     0.492960000000     0.207120000000     0.0140105  
C148     C      0.265590000000     0.462640000000     0.210340000000    -0.0648858  
C149     C      0.306350000000     0.422470000000     0.259400000000    -0.0203924  
C150     C      0.238520000000     0.502950000000     0.277430000000    -0.0648312  
C151     C      0.278390000000     0.453020000000     0.248000000000     0.0139627  
C152     C      0.265170000000     0.472570000000     0.280650000000     0.0139449  
C153     C      0.989400000000     0.279940000000     0.809380000000    -0.0198691  
C154     C      0.015780000000     0.162350000000     0.697590000000    -0.020195   
C155     C      0.075320000000     0.193760000000     0.721430000000    -0.0201645  
C156     C      0.039480000000     0.209510000000     0.740660000000     0.0140877  
C157     C      0.005510000000     0.191680000000     0.727000000000     0.0138169  
C158     C      0.967660000000     0.202410000000     0.739950000000    -0.0645294  
C159     C      0.929750000000     0.249080000000     0.785080000000    -0.0198583  
C160     C      0.037540000000     0.238900000000     0.768160000000    -0.0649679  
C161     C      0.965710000000     0.231790000000     0.767490000000     0.0138018  
C162     C      0.999710000000     0.249460000000     0.781280000000     0.014157   
C163     C      0.735120000000     0.184000000000     0.064880000000    -0.020396   
C164     C      0.766370000000     0.280720000000     0.934690000000    -0.020458   
C165     C      0.824140000000     0.263740000000     0.973530000000    -0.0204033  
C166     C      0.787760000000     0.246070000000     0.989800000000     0.0141052  
C167     C      0.754830000000     0.255640000000     0.967580000000     0.0141053  
C168     C      0.716840000000     0.242150000000     0.976930000000    -0.0648792  
C169     C      0.677420000000     0.200190000000     0.025590000000    -0.0204291  
C170     C      0.784520000000     0.222690000000     0.022740000000    -0.0648008  
C171     C      0.713620000000     0.218690000000     0.009850000000     0.0141323  
C172     C      0.746530000000     0.209340000000     0.032190000000     0.0141736  
C173     C      0.775960000000     0.441290000000     0.817460000000    -0.0200015  
C174     C      0.731670000000     0.512810000000     0.674280000000    -0.020363   
C175     C      0.687740000000     0.525010000000     0.729210000000    -0.0202585  
C176     C      0.720710000000     0.499610000000     0.741010000000     0.0140542  
C177     C      0.745610000000     0.492400000000     0.709620000000     0.0138877  
C178     C      0.778930000000     0.468850000000     0.713380000000    -0.0648065  
C179     C      0.818810000000     0.427390000000     0.762120000000    -0.0201986  
C180     C      0.728040000000     0.484160000000     0.778020000000    -0.0648938  
C181     C      0.786090000000     0.453150000000     0.750340000000     0.0140301  
C182     C      0.761490000000     0.460820000000     0.781830000000     0.0140746  
C183     C      0.965260000000     0.457500000000     0.922930000000    -0.0204241  
C184     C      0.033220000000     0.510520000000     0.065660000000    -0.0197572  
C185     C      0.053820000000     0.544770000000     0.007440000000    -0.0198323  
C186     C      0.025190000000     0.514330000000     0.997280000000     0.0139039  
C187     C      0.013360000000     0.494890000000     0.030510000000     0.0139321  
C188     C      0.986470000000     0.464610000000     0.028550000000    -0.0646384  
C189     C      0.944070000000     0.423890000000     0.981340000000    -0.0202231  
C190     C      0.010960000000     0.504400000000     0.960180000000    -0.0648892  
C191     C      0.972090000000     0.454810000000     0.991490000000     0.0138991  
C192     C      0.984090000000     0.474070000000     0.958210000000     0.0141133  
H1       H      0.098520000000     0.987590000000     0.533690000000     0.045916   
H2       H      0.049110000000     0.070350000000     0.492890000000     0.0448042  
H3       H      0.974600000000     0.037400000000     0.457580000000     0.0463945  
H4       H      0.041610000000     0.923470000000     0.515560000000     0.046443   
H5       H      0.002610000000     0.891630000000     0.443730000000     0.0473011  
H6       H      0.918150000000     0.974760000000     0.438910000000     0.0458156  
H7       H      0.061830000000     0.984420000000     0.572050000000     0.0477791  
H8       H      0.011530000000     0.068220000000     0.530480000000     0.0478407  
H9       H      0.954890000000     0.974670000000     0.400460000000     0.0464085  
H10      H      0.966350000000     0.891420000000     0.482620000000     0.046619   
H11      H      0.791300000000     0.740970000000     0.405830000000     0.0465141  
H12      H      0.776490000000     0.819890000000     0.474460000000     0.0467567  
H13      H      0.751570000000     0.780400000000     0.547810000000     0.0463076  
H14      H      0.772040000000     0.672860000000     0.454010000000     0.0464256  
H15      H      0.702380000000     0.647190000000     0.500500000000     0.047394   
H16      H      0.730870000000     0.711150000000     0.595970000000     0.0453621  
H17      H      0.836260000000     0.728130000000     0.431380000000     0.0455063  
H18      H      0.821530000000     0.806540000000     0.499600000000     0.0456029  
H19      H      0.687180000000     0.726300000000     0.569620000000     0.0460246  
H20      H      0.745830000000     0.633290000000     0.527940000000     0.0467142  
H21      H      0.150980000000     0.211520000000     0.518660000000     0.045766   
H22      H      0.222620000000     0.135200000000     0.505660000000     0.0452329  
H23      H      0.296810000000     0.176540000000     0.479580000000     0.0463587  
H24      H      0.197440000000     0.281280000000     0.496320000000     0.0464101  
H25      H      0.245510000000     0.306860000000     0.426690000000     0.0454041  
H26      H      0.343380000000     0.246230000000     0.459270000000     0.0468368  
H27      H      0.177350000000     0.228090000000     0.561340000000     0.0472466  
H28      H      0.249760000000     0.150680000000     0.548300000000     0.0475618  
H29      H      0.318450000000     0.230920000000     0.415280000000     0.0453497  
H30      H      0.270170000000     0.322710000000     0.470630000000     0.0463157  
H31      H      0.526670000000     0.575270000000     0.514240000000     0.0469878  
H32      H      0.517280000000     0.507690000000     0.593950000000     0.0456545  
H33      H      0.492530000000     0.435650000000     0.553050000000     0.0463153  
H34      H      0.506760000000     0.528530000000     0.442940000000     0.0463828  
H35      H      0.438540000000     0.480340000000     0.416960000000     0.0458869  
H36      H      0.472180000000     0.388940000000     0.482520000000     0.0463008  
H37      H      0.571250000000     0.551980000000     0.497280000000     0.0467469  
H38      H      0.561600000000     0.483270000000     0.578090000000     0.0458309  
H39      H      0.427280000000     0.412680000000     0.497900000000     0.0456518  
H40      H      0.483480000000     0.456290000000     0.402220000000     0.0467927  
H41      H      0.843100000000     0.946420000000     0.261230000000     0.047416   
H42      H      0.767930000000     0.948610000000     0.339150000000     0.0465579  
H43      H      0.695640000000     0.975830000000     0.297320000000     0.0463639  
H44      H      0.797430000000     0.970520000000     0.190540000000     0.046405   
H45      H      0.749400000000     0.037890000000     0.168580000000     0.0478022  
H46      H      0.650040000000     0.002800000000     0.226820000000     0.0451794  
H47      H      0.819860000000     0.904470000000     0.241290000000     0.045473   
H48      H      0.745080000000     0.906860000000     0.318350000000     0.0452402  
H49      H      0.675410000000     0.043220000000     0.247590000000     0.0472882  
H50      H      0.723460000000     0.997310000000     0.148840000000     0.0456303  
H51      H      0.409210000000     0.249530000000     0.279540000000     0.0476002  
H52      H      0.497670000000     0.280440000000     0.333810000000     0.0462687  
H53      H      0.564080000000     0.258080000000     0.280680000000     0.0464059  
H54      H      0.443230000000     0.217710000000     0.205840000000     0.046532   
H55      H      0.501660000000     0.157450000000     0.186160000000     0.0474364  
H56      H      0.598660000000     0.223990000000     0.207390000000     0.0448855  
H57      H      0.415850000000     0.288660000000     0.246080000000     0.0477742  
H58      H      0.503880000000     0.319180000000     0.299790000000     0.0462808  
H59      H      0.590280000000     0.185950000000     0.241790000000     0.0472857  
H60      H      0.510700000000     0.195910000000     0.152420000000     0.04627    
H61      H      0.156280000000     0.011460000000     0.729530000000     0.0457475  
H62      H      0.238760000000     0.076800000000     0.716220000000     0.0457303  
H63      H      0.310040000000     0.028960000000     0.736030000000     0.0464355  
H64      H      0.196610000000     0.938120000000     0.752310000000     0.0464731  
H65      H      0.252830000000     0.913450000000     0.814680000000     0.0470586  
H66      H      0.350670000000     0.956740000000     0.759900000000     0.0457048  
H67      H      0.169930000000     0.986000000000     0.685740000000     0.0485284  
H68      H      0.253810000000     0.052110000000     0.672410000000     0.0482308  
H69      H      0.335660000000     0.980840000000     0.804070000000     0.0460721  
H70      H      0.268450000000     0.890210000000     0.770230000000     0.0472217  
H71      H      0.406510000000     0.754350000000     0.764280000000     0.0455824  
H72      H      0.485630000000     0.758070000000     0.837140000000     0.0472815  
H73      H      0.557890000000     0.734570000000     0.791940000000     0.0465503  
H74      H      0.449360000000     0.728500000000     0.691820000000     0.046235   
H75      H      0.501590000000     0.662610000000     0.670290000000     0.0459383  
H76      H      0.600700000000     0.709240000000     0.719490000000     0.0477915  
H77      H      0.426440000000     0.796040000000     0.740650000000     0.0453731  
H78      H      0.505980000000     0.799850000000     0.814000000000     0.0466505  
H79      H      0.581170000000     0.667700000000     0.743730000000     0.0477888  
H80      H      0.521860000000     0.704130000000     0.646620000000     0.04588    
H81      H      0.407600000000     0.949650000000     0.981140000000     0.04555    
H82      H      0.474470000000     0.968130000000     0.899660000000     0.0470216  
H83      H      0.549350000000     0.994220000000     0.939250000000     0.0465268  
H84      H      0.457610000000     0.968350000000     0.051530000000     0.0463002  
H85      H      0.503630000000     0.035670000000     0.079160000000     0.0480521  
H86      H      0.599300000000     0.013390000000     0.009480000000     0.0453439  
H87      H      0.435680000000     0.907840000000     0.994160000000     0.0457971  
H88      H      0.503330000000     0.926570000000     0.911860000000     0.0473482  
H89      H      0.570850000000     0.054990000000     0.996520000000     0.0476292  
H90      H      0.532900000000     0.994280000000     0.091020000000     0.0453086  
H91      H      0.095400000000     0.689740000000     0.234030000000     0.047747   
H92      H      0.005760000000     0.647540000000     0.191460000000     0.0467055  
H93      H      0.942440000000     0.704040000000     0.211490000000     0.0464572  
H94      H      0.064950000000     0.761640000000     0.269980000000     0.0463393  
H95      H      0.001610000000     0.781860000000     0.327890000000     0.0466509  
H96      H      0.912030000000     0.776170000000     0.247680000000     0.0470347  
H97      H      0.095380000000     0.725500000000     0.196210000000     0.0466584  
H98      H      0.005950000000     0.683350000000     0.153710000000     0.0461606  
H99      H      0.911960000000     0.739810000000     0.284890000000     0.0479134  
H100     H      0.001270000000     0.818060000000     0.290530000000     0.045984   
H101     H      0.160220000000     0.711520000000     0.017200000000     0.0470295  
H102     H      0.239660000000     0.640490000000     0.019870000000     0.0464294  
H103     H      0.311350000000     0.685120000000     0.996170000000     0.0463113  
H104     H      0.203070000000     0.782800000000     0.994260000000     0.0464419  
H105     H      0.254490000000     0.806630000000     0.927830000000     0.047332   
H106     H      0.354290000000     0.756060000000     0.971390000000     0.0459597  
H107     H      0.179580000000     0.732880000000     0.061230000000     0.0457005  
H108     H      0.259130000000     0.662070000000     0.063730000000     0.0456914  
H109     H      0.333480000000     0.734500000000     0.928110000000     0.046014   
H110     H      0.275850000000     0.827410000000     0.971250000000     0.0476291  
H111     H      0.209510000000     0.571610000000     0.236950000000     0.0465027  
H112     H      0.244010000000     0.519550000000     0.150760000000     0.0471452  
H113     H      0.275890000000     0.447340000000     0.184860000000     0.0463636  
H114     H      0.228240000000     0.518260000000     0.302900000000     0.0463684  
H115     H      0.301020000000     0.478310000000     0.332380000000     0.0464598  
H116     H      0.295010000000     0.394130000000     0.250540000000     0.0464904  
H117     H      0.168260000000     0.539170000000     0.241750000000     0.0457809  
H118     H      0.202800000000     0.487070000000     0.155620000000     0.0461275  
H119     H      0.336050000000     0.426840000000     0.245990000000     0.0464008  
H120     H      0.259950000000     0.445620000000     0.336840000000     0.0470658  
H121     H      0.095670000000     0.180630000000     0.743110000000     0.0449761  
H122     H      0.006570000000     0.133660000000     0.707520000000     0.0452889  
H123     H      0.941090000000     0.188820000000     0.728950000000     0.0463579  
H124     H      0.064050000000     0.253020000000     0.778560000000     0.0464026  
H125     H      0.002100000000     0.274070000000     0.838720000000     0.0451892  
H126     H      0.909950000000     0.261230000000     0.762320000000     0.0471857  
H127     H      0.091780000000     0.216070000000     0.705180000000     0.0474122  
H128     H      0.001480000000     0.168350000000     0.668990000000     0.0469079  
H129     H      0.912700000000     0.227900000000     0.802320000000     0.0449023  
H130     H      0.000320000000     0.308020000000     0.799210000000     0.046602   
H131     H      0.846010000000     0.241860000000     0.964400000000     0.0458923  
H132     H      0.759330000000     0.267450000000     0.906080000000     0.0461371  
H133     H      0.691170000000     0.249430000000     0.959460000000     0.046486   
H134     H      0.810240000000     0.215190000000     0.040060000000     0.0465243  
H135     H      0.751210000000     0.156500000000     0.063370000000     0.0481247  
H136     H      0.655100000000     0.221590000000     0.034870000000     0.0450373  
H137     H      0.838440000000     0.282890000000     0.995140000000     0.0481874  
H138     H      0.751020000000     0.308590000000     0.936480000000     0.0476946  
H139     H      0.663620000000     0.181100000000     0.003610000000     0.0481945  
H140     H      0.741370000000     0.197470000000     0.093570000000     0.0461765  
H141     H      0.687780000000     0.551660000000     0.746590000000     0.0466738  
H142     H      0.754390000000     0.533210000000     0.663640000000     0.0458891  
H143     H      0.798290000000     0.463080000000     0.688860000000     0.0464005  
H144     H      0.708750000000     0.490020000000     0.802570000000     0.0464419  
H145     H      0.783770000000     0.461990000000     0.840700000000     0.0459316  
H146     H      0.817800000000     0.400350000000     0.745450000000     0.0469929  
H147     H      0.658510000000     0.510830000000     0.732850000000     0.0472237  
H148     H      0.724420000000     0.492710000000     0.650310000000     0.0456447  
H149     H      0.848260000000     0.440880000000     0.757540000000     0.0459948  
H150     H      0.753310000000     0.421320000000     0.829100000000     0.0475333  
H151     H      0.042100000000     0.573180000000     0.999320000000     0.046282   
H152     H      0.011200000000     0.521650000000     0.086950000000     0.0471403  
H153     H      0.977340000000     0.449360000000     0.054480000000     0.0463626  
H154     H      0.020430000000     0.519370000000     0.934200000000     0.0463703  
H155     H      0.946400000000     0.478710000000     0.907690000000     0.045135   
H156     H      0.955730000000     0.395780000000     0.990570000000     0.0472964  
H157     H      0.082790000000     0.540420000000     0.992560000000     0.0453419  
H158     H      0.051700000000     0.488650000000     0.080360000000     0.0459222  
H159     H      0.914650000000     0.428430000000     0.995270000000     0.0457096  
H160     H      0.987920000000     0.446700000000     0.902110000000     0.0474891  
In1      In     0.878150000000     0.352590000000     0.872290000000     2.39511    
In2      In     0.129120000000     0.607690000000     0.116330000000     2.39342    
In3      In     0.380010000000     0.857940000000     0.867050000000     2.39123    
In4      In     0.625930000000     0.105960000000     0.123150000000     2.40071    
In5      In     0.375920000000     0.357970000000     0.370580000000     2.38971    
In6      In     0.629880000000     0.603700000000     0.621290000000     2.39023    
In7      In     0.877580000000     0.853670000000     0.368990000000     2.39116    
In8      In     0.126220000000     0.105220000000     0.618170000000     2.39684    
N1       N      0.949560000000     0.922590000000     0.431790000000    -0.166252   
N2       N      0.065000000000     0.038080000000     0.543200000000    -0.166107   
N3       N      0.705560000000     0.669300000000     0.558510000000    -0.166676   
N4       N      0.815820000000     0.784510000000     0.441840000000    -0.167344   
N5       N      0.305110000000     0.287440000000     0.433370000000    -0.167805   
N6       N      0.190190000000     0.171080000000     0.544350000000    -0.166721   
N7       N      0.445280000000     0.424140000000     0.439280000000    -0.167357   
N8       N      0.554930000000     0.539680000000     0.556230000000    -0.166814   
N9       N      0.689550000000     0.031400000000     0.188020000000    -0.166682   
N10      N      0.804860000000     0.916770000000     0.300480000000    -0.167425   
N11      N      0.560550000000     0.179850000000     0.187070000000    -0.166657   
N12      N      0.446110000000     0.294370000000     0.300490000000    -0.165039   
N13      N      0.312540000000     0.924810000000     0.797230000000    -0.166151   
N14      N      0.194110000000     0.041840000000     0.690610000000    -0.16507    
N15      N      0.561770000000     0.675370000000     0.684890000000    -0.165362   
N16      N      0.445740000000     0.787460000000     0.799380000000    -0.167158   
N17      N      0.561960000000     0.034820000000     0.054680000000    -0.166454   
N18      N      0.444890000000     0.927950000000     0.936030000000    -0.166543   
N19      N      0.946270000000     0.789010000000     0.298410000000    -0.164982   
N20      N      0.061040000000     0.676120000000     0.183560000000    -0.165423   
N21      N      0.314790000000     0.791410000000     0.939020000000    -0.165631   
N22      N      0.199020000000     0.676210000000     0.050460000000    -0.167065   
N23      N      0.308250000000     0.425890000000     0.301990000000    -0.165653   
N24      N      0.195950000000     0.539690000000     0.185690000000    -0.166491   
N25      N      0.945940000000     0.278820000000     0.810370000000    -0.167888   
N26      N      0.059090000000     0.165120000000     0.694850000000    -0.167513   
N27      N      0.692360000000     0.178760000000     0.059180000000    -0.165628   
N28      N      0.809320000000     0.285010000000     0.939790000000    -0.165143   
N29      N      0.811200000000     0.420930000000     0.803720000000    -0.166244   
N30      N      0.696030000000     0.532590000000     0.687950000000    -0.166658   
N31      N      0.941160000000     0.426480000000     0.938740000000    -0.166647   
N32      N      0.057860000000     0.541140000000     0.049880000000    -0.167282   
O1       O      0.818500000000     0.326410000000     0.888910000000    -0.491366   
O2       O      0.869360000000     0.310590000000     0.922280000000    -0.491943   
O3       O      0.938110000000     0.328790000000     0.852580000000    -0.504469   
O4       O      0.862920000000     0.379700000000     0.813610000000    -0.500659   
O5       O      0.899640000000     0.375500000000     0.931070000000    -0.49404    
O6       O      0.826930000000     0.393980000000     0.862700000000    -0.495582   
O7       O      0.885910000000     0.302420000000     0.830560000000    -0.503623   
O8       O      0.919010000000     0.404040000000     0.879740000000    -0.498382   
O9       O      0.069110000000     0.629450000000     0.137570000000    -0.49837    
O10      O      0.121330000000     0.654170000000     0.162080000000    -0.4895     
O11      O      0.152720000000     0.589040000000     0.175940000000    -0.496412   
O12      O      0.084930000000     0.559110000000     0.108460000000    -0.499341   
O13      O      0.140650000000     0.662000000000     0.081630000000    -0.500002   
O14      O      0.102250000000     0.589920000000     0.057730000000    -0.504051   
O15      O      0.172250000000     0.558420000000     0.125920000000    -0.495094   
O16      O      0.187440000000     0.621570000000     0.085050000000    -0.498385   
O17      O      0.370370000000     0.911000000000     0.829660000000    -0.498711   
O18      O      0.323000000000     0.871180000000     0.833660000000    -0.490772   
O19      O      0.392160000000     0.888170000000     0.925020000000    -0.501613   
O20      O      0.370460000000     0.803670000000     0.902450000000    -0.499255   
O21      O      0.389270000000     0.821820000000     0.812080000000    -0.503392   
O22      O      0.325200000000     0.845970000000     0.904070000000    -0.488472   
O23      O      0.431750000000     0.898530000000     0.877750000000    -0.490945   
O24      O      0.435530000000     0.823050000000     0.854430000000    -0.498279   
O25      O      0.567940000000     0.135730000000     0.138500000000    -0.499616   
O26      O      0.619280000000     0.150410000000     0.171540000000    -0.500182   
O27      O      0.636480000000     0.071240000000     0.178740000000    -0.499363   
O28      O      0.613750000000     0.075810000000     0.065220000000    -0.497419   
O29      O      0.684020000000     0.136220000000     0.109140000000    -0.494313   
O30      O      0.575160000000     0.064160000000     0.112990000000    -0.497075   
O31      O      0.678260000000     0.065880000000     0.132400000000    -0.498281   
O32      O      0.633460000000     0.149440000000     0.074190000000    -0.496851   
O33      O      0.318990000000     0.344680000000     0.404600000000    -0.499373   
O34      O      0.362000000000     0.300880000000     0.399370000000    -0.501905   
O35      O      0.385460000000     0.316490000000     0.320520000000    -0.48637    
O36      O      0.352410000000     0.377260000000     0.311250000000    -0.491182   
O37      O      0.407050000000     0.371320000000     0.428330000000    -0.504844   
O38      O      0.331720000000     0.406570000000     0.361690000000    -0.489851   
O39      O      0.436750000000     0.336440000000     0.350870000000    -0.497329   
O40      O      0.414900000000     0.410000000000     0.381150000000    -0.501638   
O41      O      0.589740000000     0.552000000000     0.612450000000    -0.503768   
O42      O      0.594020000000     0.592060000000     0.566040000000    -0.496475   
O43      O      0.618860000000     0.641710000000     0.673890000000    -0.487774   
O44      O      0.642950000000     0.572090000000     0.678070000000    -0.492481   
O45      O      0.672520000000     0.613600000000     0.570330000000    -0.491001   
O46      O      0.682680000000     0.563680000000     0.630540000000    -0.49982    
O47      O      0.572910000000     0.637810000000     0.631170000000    -0.498098   
O48      O      0.663670000000     0.659070000000     0.610250000000    -0.500645   
O49      O      0.885880000000     0.809440000000     0.321060000000    -0.4869     
O50      O      0.937890000000     0.833720000000     0.346410000000    -0.492915   
O51      O      0.842590000000     0.842190000000     0.425260000000    -0.497981   
O52      O      0.900400000000     0.912200000000     0.386700000000    -0.503119   
O53      O      0.818870000000     0.884400000000     0.356990000000    -0.501483   
O54      O      0.926640000000     0.863830000000     0.413810000000    -0.492849   
O55      O      0.850770000000     0.796340000000     0.385760000000    -0.49901    
O56      O      0.863300000000     0.885760000000     0.312810000000    -0.501513   
O57      O      0.111040000000     0.047700000000     0.591440000000    -0.493119   
O58      O      0.080830000000     0.096170000000     0.569220000000    -0.496479   
O59      O      0.184430000000     0.092720000000     0.649890000000    -0.491066   
O60      O      0.178400000000     0.115160000000     0.576650000000    -0.497677   
O61      O      0.066740000000     0.120630000000     0.646500000000    -0.501346   
O62      O      0.137610000000     0.160570000000     0.585430000000    -0.502089   
O63      O      0.135450000000     0.055520000000     0.659730000000    -0.492855   
O64      O      0.118530000000     0.148950000000     0.666860000000    -0.503905   


