data_structure

_audit_creation_method RASPA-1.0
_audit_creation_date 2023-5-23
_audit_author_name 'Poobodin Mano'

_cell_length_a    25.8844
_cell_length_b    26.2341
_cell_length_c    54.1728
_cell_angle_alpha 90
_cell_angle_beta  89.9968
_cell_angle_gamma 89.771
_cell_volume      36786

_symmetry_cell_setting          triclinic
_symmetry_space_group_name_Hall 'P 1'
_symmetry_space_group_name_H-M  'P 1'
_symmetry_Int_Tables_number     1

_symmetry_equiv_pos_as_xyz 'x,y,z'

loop_
_atom_site_label
_atom_site_type_symbol
_atom_site_fract_x
_atom_site_fract_y
_atom_site_fract_z
_atom_site_charge
C1       C      0.600170000000     0.749430000000     0.670060000000     0.408441   
C2       C      0.593380000000     0.756230000000     0.585440000000     0.406259   
C3       C      0.462250000000     0.704450000000     0.620930000000     0.310439   
C4       C      0.515190000000     0.863290000000     0.638870000000     0.402327   
C5       C      0.276590000000     0.275090000000     0.598120000000     0.407074   
C6       C      0.268390000000     0.296990000000     0.681730000000     0.41053    
C7       C      0.380100000000     0.197800000000     0.648140000000     0.407153   
C8       C      0.389600000000     0.368450000000     0.636820000000     0.311813   
C9       C      0.678710000000     0.668900000000     0.336110000000     0.406533   
C10      C      0.691420000000     0.667820000000     0.424460000000     0.408649   
C11      C      0.596360000000     0.572370000000     0.386690000000     0.399576   
C12      C      0.775860000000     0.571760000000     0.373020000000     0.399764   
C13      C      0.194740000000     0.295250000000     0.344900000000     0.40673    
C14      C      0.178420000000     0.309860000000     0.433320000000     0.408826   
C15      C      0.275320000000     0.399270000000     0.392310000000     0.398033   
C16      C      0.097350000000     0.398140000000     0.377620000000     0.397259   
C17      C      0.690950000000     0.816310000000     0.832280000000     0.408326   
C18      C      0.680410000000     0.813720000000     0.920270000000     0.4081     
C19      C      0.775300000000     0.913350000000     0.882970000000     0.397767   
C20      C      0.596560000000     0.914380000000     0.870540000000     0.397772   
C21      C      0.180210000000     0.194200000000     0.839400000000     0.408278   
C22      C      0.191160000000     0.180560000000     0.927100000000     0.408077   
C23      C      0.095970000000     0.088480000000     0.885900000000     0.39845    
C24      C      0.275170000000     0.089840000000     0.873350000000     0.398658   
C25      C      0.116610000000     0.244710000000     0.092900000000     0.406867   
C26      C      0.114010000000     0.225380000000     0.181210000000     0.407952   
C27      C      0.018660000000     0.324180000000     0.143650000000     0.39871    
C28      C      0.019450000000     0.146260000000     0.128410000000     0.398596   
C29      C      0.754540000000     0.744070000000     0.172100000000     0.407459   
C30      C      0.756570000000     0.730060000000     0.083740000000     0.407748   
C31      C      0.852390000000     0.825150000000     0.121790000000     0.399423   
C32      C      0.851620000000     0.646620000000     0.135610000000     0.399127   
C33      C      0.938110000000     0.376620000000     0.145210000000    -0.0208162  
C34      C      0.931390000000     0.594340000000     0.141840000000    -0.0208264  
C35      C      0.847940000000     0.552350000000     0.139850000000    -0.0204219  
C36      C      0.889980000000     0.514260000000     0.142650000000     0.0140277  
C37      C      0.937590000000     0.538150000000     0.143870000000     0.0141497  
C38      C      0.983580000000     0.510050000000     0.145880000000    -0.0644905  
C39      C      0.021510000000     0.418540000000     0.147760000000    -0.0208608  
C40      C      0.885680000000     0.461000000000     0.143220000000    -0.0647757  
C41      C      0.979240000000     0.456800000000     0.146660000000     0.0142101  
C42      C      0.931650000000     0.432910000000     0.145280000000     0.0142972  
C43      C      0.849180000000     0.919610000000     0.118680000000    -0.0203868  
C44      C      0.023090000000     0.052240000000     0.122840000000    -0.0208144  
C45      C      0.939410000000     0.094660000000     0.123130000000    -0.0208835  
C46      C      0.933170000000     0.038580000000     0.120920000000     0.014278   
C47      C      0.980900000000     0.014410000000     0.120830000000     0.0141469  
C48      C      0.985250000000     0.961140000000     0.119960000000    -0.0645269  
C49      C      0.932790000000     0.877080000000     0.118940000000    -0.0208295  
C50      C      0.887100000000     0.010780000000     0.119970000000    -0.0647888  
C51      C      0.939170000000     0.933340000000     0.118940000000     0.0142244  
C52      C      0.891450000000     0.957530000000     0.118870000000     0.0140634  
C53      C      0.117500000000     0.277250000000     0.049820000000    -0.0208649  
C54      C      0.220300000000     0.176270000000     0.970840000000    -0.0205672  
C55      C      0.159900000000     0.242660000000     0.958460000000    -0.0205772  
C56      C      0.165780000000     0.241680000000     0.985700000000     0.014078   
C57      C      0.200860000000     0.204340000000     0.992740000000     0.0137531  
C58      C      0.210380000000     0.193510000000     0.017680000000    -0.0646619  
C59      C      0.182040000000     0.214960000000     0.062400000000    -0.020748   
C60      C      0.137100000000     0.269100000000     0.003190000000    -0.0648875  
C61      C      0.182760000000     0.221980000000     0.035200000000     0.0138633  
C62      C      0.146530000000     0.258200000000     0.028110000000     0.0140485  
C63      C      0.714080000000     0.748330000000     0.949430000000    -0.0206807  
C64      C      0.690100000000     0.760440000000     0.053970000000    -0.0206353  
C65      C      0.758190000000     0.703690000000     0.039650000000    -0.0206986  
C66      C      0.728160000000     0.723950000000     0.018480000000     0.0139819  
C67      C      0.689870000000     0.757040000000     0.026620000000     0.0139734  
C68      C      0.660770000000     0.786310000000     0.009990000000    -0.0647057  
C69      C      0.650120000000     0.809530000000     0.963820000000    -0.0206847  
C70      C      0.738270000000     0.717040000000     0.993280000000    -0.0648757  
C71      C      0.670980000000     0.779500000000     0.984790000000     0.0138304  
C72      C      0.708110000000     0.745180000000     0.976630000000     0.0140393  
C73      C      0.370970000000     0.090630000000     0.869750000000    -0.0205423  
C74      C      0.500950000000     0.914570000000     0.865900000000    -0.0205257  
C75      C      0.546120000000     0.995470000000     0.868450000000    -0.0208334  
C76      C      0.489400000000     0.003780000000     0.867280000000     0.0142596  
C77      C      0.463660000000     0.957630000000     0.865850000000     0.014042   
C78      C      0.409560000000     0.955240000000     0.865510000000    -0.0648164  
C79      C      0.325800000000     0.009710000000     0.867370000000    -0.0208441  
C80      C      0.462420000000     0.050160000000     0.868390000000    -0.0647772  
C81      C      0.382590000000     0.001630000000     0.866510000000     0.0142353  
C82      C      0.408320000000     0.047790000000     0.867890000000     0.0140611  
C83      C      0.825460000000     0.993830000000     0.887420000000    -0.0208689  
C84      C      0.045760000000     0.007590000000     0.887430000000    -0.0210863  
C85      C      0.000080000000     0.088680000000     0.889070000000    -0.0213312  
C86      C      0.963000000000     0.045720000000     0.889030000000     0.0143438  
C87      C      0.989030000000     0.999470000000     0.888140000000     0.0143912  
C88      C      0.962360000000     0.953110000000     0.887310000000    -0.0648503  
C89      C      0.871180000000     0.912740000000     0.886090000000    -0.0205466  
C90      C      0.908880000000     0.048230000000     0.889050000000    -0.0649098  
C91      C      0.908240000000     0.955610000000     0.887490000000     0.0140382  
C92      C      0.882200000000     0.001860000000     0.888290000000     0.0142569  
C93      C      0.182250000000     0.250020000000     0.211240000000    -0.020617   
C94      C      0.160350000000     0.230720000000     0.315610000000    -0.0209617  
C95      C      0.227330000000     0.288750000000     0.301870000000    -0.0210487  
C96      C      0.204740000000     0.261290000000     0.280560000000     0.0140417  
C97      C      0.165890000000     0.228780000000     0.288340000000     0.013848   
C98      C      0.133620000000     0.204170000000     0.271360000000    -0.0646247  
C99      C      0.111580000000     0.196260000000     0.224910000000    -0.0205565  
C100     C      0.214480000000     0.269750000000     0.255450000000    -0.0648812  
C101     C      0.143360000000     0.212640000000     0.246230000000     0.0137808  
C102     C      0.183210000000     0.243960000000     0.238480000000     0.0141614  
C103     C      0.753640000000     0.773970000000     0.215630000000    -0.0206093  
C104     C      0.648100000000     0.670270000000     0.292600000000    -0.0206305  
C105     C      0.709580000000     0.734060000000     0.306270000000    -0.0206251  
C106     C      0.703670000000     0.735570000000     0.279030000000     0.014066   
C107     C      0.667930000000     0.699730000000     0.271270000000     0.0138725  
C108     C      0.658520000000     0.690910000000     0.246150000000    -0.0647602  
C109     C      0.688010000000     0.714390000000     0.201910000000    -0.0207022  
C110     C      0.733130000000     0.763370000000     0.262070000000    -0.0648123  
C111     C      0.686890000000     0.719820000000     0.229190000000     0.0140096  
C112     C      0.723770000000     0.754500000000     0.236950000000     0.01392    
C113     C      0.500550000000     0.573780000000     0.389830000000    -0.0203129  
C114     C      0.370970000000     0.398920000000     0.396460000000    -0.0204771  
C115     C      0.325680000000     0.480010000000     0.393050000000    -0.0207397  
C116     C      0.382390000000     0.487930000000     0.393770000000     0.0145041  
C117     C      0.408200000000     0.441660000000     0.395610000000     0.0143187  
C118     C      0.462270000000     0.438860000000     0.395540000000    -0.0647539  
C119     C      0.545850000000     0.492580000000     0.392480000000    -0.020655   
C120     C      0.409250000000     0.534040000000     0.392000000000    -0.0647735  
C121     C      0.489140000000     0.484970000000     0.393770000000     0.0144597  
C122     C      0.463330000000     0.531270000000     0.392160000000     0.0142741  
C123     C      0.002200000000     0.397120000000     0.371350000000    -0.0210282  
C124     C      0.871610000000     0.572700000000     0.369400000000    -0.0204578  
C125     C      0.826810000000     0.491430000000     0.368740000000    -0.020785   
C126     C      0.883620000000     0.483540000000     0.368310000000     0.0143226  
C127     C      0.909140000000     0.529910000000     0.368650000000     0.014082   
C128     C      0.963180000000     0.532580000000     0.369470000000    -0.0648604  
C129     C      0.046990000000     0.478400000000     0.371790000000    -0.0210153  
C130     C      0.910760000000     0.437230000000     0.368830000000    -0.0649006  
C131     C      0.990340000000     0.486280000000     0.369790000000     0.0144697  
C132     C      0.964820000000     0.439910000000     0.369510000000     0.0143235  
C133     C      0.267730000000     0.234810000000     0.556750000000    -0.0207575  
C134     C      0.153800000000     0.321620000000     0.477250000000    -0.0206229  
C135     C      0.209170000000     0.250350000000     0.466030000000    -0.0210357  
C136     C      0.208440000000     0.257490000000     0.493230000000     0.0141626  
C137     C      0.176440000000     0.297910000000     0.499610000000     0.0133409  
C138     C      0.173020000000     0.315520000000     0.523980000000    -0.0646125  
C139     C      0.210160000000     0.304400000000     0.568000000000    -0.0187861  
C140     C      0.239400000000     0.232980000000     0.510890000000    -0.0650157  
C141     C      0.203090000000     0.290290000000     0.541700000000     0.0121163  
C142     C      0.235700000000     0.250370000000     0.535310000000     0.014408   
C143     C      0.210470000000     0.265900000000     0.813100000000    -0.0206171  
C144     C      0.197190000000     0.264920000000     0.708090000000    -0.0203498  
C145     C      0.258420000000     0.324980000000     0.725380000000    -0.0207344  
C146     C      0.227690000000     0.300750000000     0.745260000000     0.01464    
C147     C      0.193140000000     0.266020000000     0.735390000000     0.0146303  
C148     C      0.165170000000     0.232720000000     0.750510000000    -0.064736   
C149     C      0.152750000000     0.202670000000     0.795590000000    -0.0205585  
C150     C      0.235090000000     0.305030000000     0.770820000000    -0.0647371  
C151     C      0.172470000000     0.237070000000     0.776060000000     0.0140135  
C152     C      0.205990000000     0.272720000000     0.785970000000     0.0141215  
C153     C      0.655000000000     0.710540000000     0.557780000000    -0.0206003  
C154     C      0.663300000000     0.736350000000     0.453290000000    -0.0207898  
C155     C      0.711180000000     0.663690000000     0.469310000000    -0.0206667  
C156     C      0.689940000000     0.694760000000     0.489810000000     0.0139788  
C157     C      0.662280000000     0.736020000000     0.480680000000     0.0142373  
C158     C      0.633660000000     0.767920000000     0.496320000000    -0.0647289  
C159     C      0.604940000000     0.781650000000     0.541590000000    -0.0203351  
C160     C      0.691140000000     0.683580000000     0.515110000000    -0.064709   
C161     C      0.635060000000     0.756900000000     0.521620000000     0.0141557  
C162     C      0.663330000000     0.716080000000     0.530800000000     0.0142417  
C163     C      0.607950000000     0.713770000000     0.712500000000    -0.0210857  
C164     C      0.718380000000     0.816220000000     0.788310000000    -0.0206132  
C165     C      0.658990000000     0.751140000000     0.802650000000    -0.02068    
C166     C      0.662870000000     0.750350000000     0.775300000000     0.0139864  
C167     C      0.697360000000     0.787020000000     0.767170000000     0.0139743  
C168     C      0.704340000000     0.797020000000     0.742000000000    -0.0647836  
C169     C      0.670870000000     0.775570000000     0.698260000000    -0.020638   
C170     C      0.632470000000     0.722630000000     0.758650000000    -0.0646636  
C171     C      0.675020000000     0.768320000000     0.725330000000     0.0138495  
C172     C      0.639570000000     0.732550000000     0.733440000000     0.0140666  
C173     C      0.338800000000     0.498620000000     0.600470000000    -0.0447447  
C174     C      0.183160000000     0.397610000000     0.656490000000    -0.0438334  
C175     C      0.246780000000     0.442440000000     0.680600000000    -0.0468457  
C176     C      0.257790000000     0.448260000000     0.653910000000     0.0200279  
C177     C      0.221240000000     0.422570000000     0.640060000000     0.0185224  
C178     C      0.222960000000     0.422210000000     0.614210000000    -0.058431   
C179     C      0.275360000000     0.453620000000     0.576330000000    -0.0435162  
C180     C      0.298270000000     0.475020000000     0.642720000000    -0.0666916  
C181     C      0.263630000000     0.448710000000     0.603010000000     0.0240452  
C182     C      0.300110000000     0.474510000000     0.616870000000     0.0271813  
C183     C      0.456530000000     0.926360000000     0.658970000000    -0.0204998  
C184     C      0.453280000000     0.139550000000     0.638130000000    -0.0202816  
C185     C      0.384360000000     0.109650000000     0.664890000000    -0.0202318  
C186     C      0.420520000000     0.067470000000     0.658900000000     0.0141082  
C187     C      0.459850000000     0.084530000000     0.643640000000     0.0145586  
C188     C      0.497130000000     0.051060000000     0.634120000000    -0.0647417  
C189     C      0.525500000000     0.956440000000     0.632280000000    -0.0203926  
C190     C      0.416250000000     0.015970000000     0.665440000000    -0.06464    
C191     C      0.493130000000     0.999660000000     0.640840000000     0.0144118  
C192     C      0.453780000000     0.982550000000     0.656070000000     0.0142878  
H1       H      0.820820000000     0.550940000000     0.155740000000     0.0459555  
H2       H      0.945740000000     0.613870000000     0.158680000000     0.0457633  
H3       H      0.020830000000     0.528610000000     0.146510000000     0.0464678  
H4       H      0.848550000000     0.442390000000     0.141820000000     0.0467328  
H5       H      0.919290000000     0.359150000000     0.161570000000     0.045707   
H6       H      0.049000000000     0.423320000000     0.132170000000     0.0484825  
H7       H      0.825740000000     0.545970000000     0.122570000000     0.0478407  
H8       H      0.952370000000     0.609570000000     0.125550000000     0.0482403  
H9       H      0.043230000000     0.421520000000     0.165390000000     0.0454905  
H10      H      0.921550000000     0.359390000000     0.128230000000     0.0489418  
H11      H      0.919980000000     0.109600000000     0.139950000000     0.0484555  
H12      H      0.047230000000     0.045220000000     0.139470000000     0.0478614  
H13      H      0.022520000000     0.942300000000     0.120360000000     0.0464689  
H14      H      0.849790000000     0.029550000000     0.120370000000     0.0467105  
H15      H      0.823540000000     0.924210000000     0.135000000000     0.0484996  
H16      H      0.949880000000     0.859760000000     0.102080000000     0.0456233  
H17      H      0.923410000000     0.114660000000     0.106730000000     0.0457676  
H18      H      0.048360000000     0.051240000000     0.106260000000     0.045823   
H19      H      0.951090000000     0.859420000000     0.135430000000     0.0486721  
H20      H      0.825440000000     0.923130000000     0.101670000000     0.045608   
H21      H      0.174160000000     0.279210000000     0.950710000000     0.0465753  
H22      H      0.262650000000     0.181360000000     0.968680000000     0.0449373  
H23      H      0.236590000000     0.163310000000     0.023160000000     0.0464785  
H24      H      0.107680000000     0.296250000000     0.997680000000     0.0464697  
H25      H      0.124200000000     0.318660000000     0.052600000000     0.0447774  
H26      H      0.175500000000     0.174440000000     0.067510000000     0.0471837  
H27      H      0.118940000000     0.237460000000     0.952850000000     0.0470352  
H28      H      0.211870000000     0.134840000000     0.972200000000     0.0471106  
H29      H      0.218950000000     0.227820000000     0.070750000000     0.046517   
H30      H      0.075310000000     0.270700000000     0.047730000000     0.0479195  
H31      H      0.799910000000     0.712950000000     0.037900000000     0.047683   
H32      H      0.694320000000     0.800490000000     0.060350000000     0.0473545  
H33      H      0.632890000000     0.814230000000     0.016360000000     0.0465065  
H34      H      0.769220000000     0.692400000000     0.986990000000     0.0465255  
H35      H      0.754740000000     0.756290000000     0.944090000000     0.0470614  
H36      H      0.608160000000     0.802400000000     0.961340000000     0.0447908  
H37      H      0.753980000000     0.661670000000     0.041090000000     0.044808   
H38      H      0.653940000000     0.744490000000     0.061800000000     0.0465907  
H39      H      0.656120000000     0.851080000000     0.966610000000     0.0473422  
H40      H      0.701680000000     0.712290000000     0.940480000000     0.0465004  
H41      H      0.562780000000     0.011670000000     0.885640000000     0.0486291  
H42      H      0.494070000000     0.888570000000     0.881760000000     0.048191   
H43      H      0.389500000000     0.919150000000     0.864810000000     0.0466827  
H44      H      0.482450000000     0.086170000000     0.869890000000     0.0467484  
H45      H      0.376940000000     0.112910000000     0.886960000000     0.0482193  
H46      H      0.307080000000     0.996090000000     0.850150000000     0.0458709  
H47      H      0.565810000000     0.012940000000     0.852320000000     0.046042   
H48      H      0.498400000000     0.892230000000     0.848520000000     0.0455436  
H49      H      0.308180000000     0.989680000000     0.883350000000     0.0486459  
H50      H      0.374430000000     0.116740000000     0.853690000000     0.0455579  
H51      H      0.996570000000     0.111580000000     0.906250000000     0.0460066  
H52      H      0.064940000000     0.990310000000     0.903780000000     0.0458866  
H53      H      0.982630000000     0.917000000000     0.886360000000     0.0467608  
H54      H      0.888600000000     0.084390000000     0.889420000000     0.0467474  
H55      H      0.806440000000     0.008550000000     0.904390000000     0.0458833  
H56      H      0.877290000000     0.889710000000     0.869100000000     0.0481051  
H57      H      0.993850000000     0.114190000000     0.872950000000     0.0482798  
H58      H      0.063140000000     0.991080000000     0.870450000000     0.0484767  
H59      H      0.874830000000     0.887330000000     0.902410000000     0.0457187  
H60      H      0.807910000000     0.012890000000     0.871110000000     0.04853    
H61      H      0.224220000000     0.330750000000     0.299470000000     0.0483587  
H62      H      0.120070000000     0.240120000000     0.321180000000     0.047603   
H63      H      0.101360000000     0.181170000000     0.277400000000     0.046424   
H64      H      0.243590000000     0.296530000000     0.249430000000     0.0465846  
H65      H      0.179860000000     0.290820000000     0.205790000000     0.0473174  
H66      H      0.113250000000     0.154210000000     0.222560000000     0.0448038  
H67      H      0.268670000000     0.278370000000     0.304290000000     0.0447694  
H68      H      0.171560000000     0.193680000000     0.324020000000     0.0461752  
H69      H      0.070540000000     0.208030000000     0.227160000000     0.0474166  
H70      H      0.217270000000     0.232820000000     0.202730000000     0.0465074  
H71      H      0.695620000000     0.770140000000     0.314740000000     0.0466774  
H72      H      0.605900000000     0.676430000000     0.294970000000     0.0451274  
H73      H      0.631900000000     0.661730000000     0.240120000000     0.0465506  
H74      H      0.763140000000     0.789160000000     0.268090000000     0.0465592  
H75      H      0.747900000000     0.815710000000     0.213410000000     0.0448728  
H76      H      0.693730000000     0.674020000000     0.196260000000     0.0471337  
H77      H      0.750510000000     0.727730000000     0.311750000000     0.0472482  
H78      H      0.655570000000     0.628770000000     0.290310000000     0.0476883  
H79      H      0.651570000000     0.728880000000     0.193600000000     0.0465845  
H80      H      0.795640000000     0.766080000000     0.217810000000     0.0478381  
H81      H      0.308580000000     0.495300000000     0.375740000000     0.0491177  
H82      H      0.377380000000     0.371840000000     0.380970000000     0.0485015  
H83      H      0.482380000000     0.402660000000     0.396540000000     0.0468924  
H84      H      0.389140000000     0.570120000000     0.390300000000     0.0469159  
H85      H      0.494320000000     0.595490000000     0.372460000000     0.0481438  
H86      H      0.565170000000     0.479050000000     0.409590000000     0.0462465  
H87      H      0.306390000000     0.498580000000     0.409040000000     0.046173   
H88      H      0.374020000000     0.377730000000     0.414160000000     0.0459008  
H89      H      0.562920000000     0.472210000000     0.376420000000     0.0488185  
H90      H      0.497300000000     0.600470000000     0.405690000000     0.0460504  
H91      H      0.808930000000     0.472790000000     0.385050000000     0.0487036  
H92      H      0.877300000000     0.596740000000     0.386070000000     0.0481366  
H93      H      0.983020000000     0.568790000000     0.370220000000     0.0468206  
H94      H      0.890860000000     0.401020000000     0.369090000000     0.046783   
H95      H      0.994500000000     0.373190000000     0.387870000000     0.048429   
H96      H      0.067300000000     0.493520000000     0.355290000000     0.0460678  
H97      H      0.808520000000     0.476190000000     0.351740000000     0.0459159  
H98      H      0.875120000000     0.597130000000     0.352740000000     0.0453941  
H99      H      0.062890000000     0.497160000000     0.388530000000     0.0487764  
H100     H      0.000710000000     0.372580000000     0.354650000000     0.0454142  
H101     H      0.191530000000     0.213300000000     0.460890000000     0.0457246  
H102     H      0.111150000000     0.317080000000     0.477060000000     0.0443563  
H103     H      0.149600000000     0.348350000000     0.528740000000     0.0445891  
H104     H      0.266320000000     0.203130000000     0.505740000000     0.0467019  
H105     H      0.259350000000     0.194870000000     0.562230000000     0.044895   
H106     H      0.221080000000     0.345070000000     0.569920000000     0.0407742  
H107     H      0.249170000000     0.251740000000     0.458570000000     0.047786   
H108     H      0.163070000000     0.362930000000     0.476220000000     0.0475585  
H109     H      0.174340000000     0.297510000000     0.578770000000     0.042499   
H110     H      0.309650000000     0.238120000000     0.552610000000     0.0475439  
H111     H      0.300590000000     0.319730000000     0.728440000000     0.0477965  
H112     H      0.204330000000     0.225620000000     0.701160000000     0.0496286  
H113     H      0.140610000000     0.203510000000     0.742760000000     0.0464158  
H114     H      0.263560000000     0.330690000000     0.778460000000     0.0464655  
H115     H      0.251300000000     0.260070000000     0.818850000000     0.0474332  
H116     H      0.110190000000     0.206550000000     0.797570000000     0.0448936  
H117     H      0.249730000000     0.366380000000     0.724390000000     0.0454422  
H118     H      0.161270000000     0.280000000000     0.699510000000     0.0451763  
H119     H      0.162260000000     0.162160000000     0.791530000000     0.0473417  
H120     H      0.194540000000     0.299510000000     0.823030000000     0.0464401  
H121     H      0.697750000000     0.623550000000     0.470400000000     0.0476413  
H122     H      0.623630000000     0.736340000000     0.445420000000     0.0479058  
H123     H      0.610220000000     0.798770000000     0.489100000000     0.046829   
H124     H      0.711350000000     0.650410000000     0.522130000000     0.0466735  
H125     H      0.639660000000     0.672230000000     0.562490000000     0.046727   
H126     H      0.617230000000     0.821800000000     0.544280000000     0.0470628  
H127     H      0.754090000000     0.663990000000     0.469550000000     0.0450693  
H128     H      0.684270000000     0.770260000000     0.446280000000     0.046173   
H129     H      0.562840000000     0.781140000000     0.537540000000     0.0474953  
H130     H      0.691510000000     0.716680000000     0.568120000000     0.0465517  
H131     H      0.674190000000     0.715110000000     0.810670000000     0.0463677  
H132     H      0.760800000000     0.810560000000     0.789910000000     0.044853   
H133     H      0.729720000000     0.827060000000     0.735730000000     0.0463635  
H134     H      0.603340000000     0.696220000000     0.765020000000     0.0467134  
H135     H      0.614890000000     0.672460000000     0.709340000000     0.0456273  
H136     H      0.664350000000     0.816300000000     0.693430000000     0.046668   
H137     H      0.618410000000     0.756660000000     0.808870000000     0.0475219  
H138     H      0.710200000000     0.857670000000     0.786400000000     0.0475105  
H139     H      0.706470000000     0.761960000000     0.688850000000     0.0459294  
H140     H      0.566020000000     0.720020000000     0.715850000000     0.0483926  
H141     H      0.239240000000     0.480070000000     0.689290000000     0.0459027  
H142     H      0.143670000000     0.412720000000     0.653080000000     0.0456005  
H143     H      0.194290000000     0.402210000000     0.603440000000     0.0487237  
H144     H      0.326960000000     0.494930000000     0.653560000000     0.0475244  
H145     H      0.338710000000     0.540660000000     0.602840000000     0.0468842  
H146     H      0.283320000000     0.415710000000     0.568020000000     0.0499914  
H147     H      0.279350000000     0.422950000000     0.690060000000     0.0514335  
H148     H      0.183820000000     0.355630000000     0.653930000000     0.0506633  
H149     H      0.243130000000     0.472740000000     0.566420000000     0.0446052  
H150     H      0.377990000000     0.482960000000     0.604080000000     0.0506845  
H151     H      0.384340000000     0.117800000000     0.685010000000     0.0449521  
H152     H      0.486200000000     0.162000000000     0.645470000000     0.0464411  
H153     H      0.527060000000     0.064140000000     0.621700000000     0.0469409  
H154     H      0.384770000000     0.002450000000     0.676820000000     0.0465992  
H155     H      0.463370000000     0.915610000000     0.678550000000     0.0450488  
H156     H      0.525690000000     0.953670000000     0.611810000000     0.049313   
H157     H      0.344280000000     0.100600000000     0.659020000000     0.047691   
H158     H      0.450070000000     0.146480000000     0.617940000000     0.0491821  
H159     H      0.565970000000     0.960360000000     0.638850000000     0.0462288  
H160     H      0.420450000000     0.907780000000     0.652520000000     0.0491651  
In1      In     0.543920000000     0.766880000000     0.628930000000     2.40041    
In2      In     0.327810000000     0.285590000000     0.641170000000     2.39374    
In3      In     0.686070000000     0.621540000000     0.380120000000     2.41072    
In4      In     0.186100000000     0.348550000000     0.387300000000     2.40483    
In5      In     0.685850000000     0.863040000000     0.876600000000     2.39729    
In6      In     0.185580000000     0.139440000000     0.881500000000     2.39861    
In7      In     0.068200000000     0.235010000000     0.136740000000     2.40384    
In8      In     0.802960000000     0.736170000000     0.128200000000     2.40621    
N1       N      0.994260000000     0.369770000000     0.146200000000    -0.16405    
N2       N      0.875460000000     0.601040000000     0.139150000000    -0.164746   
N3       N      0.876600000000     0.870640000000     0.119270000000    -0.164508   
N4       N      0.995520000000     0.101010000000     0.124600000000    -0.164441   
N5       N      0.139200000000     0.247730000000     0.070350000000    -0.166613   
N6       N      0.192370000000     0.200040000000     0.950280000000    -0.167153   
N7       N      0.679480000000     0.790350000000     0.942610000000    -0.167101   
N8       N      0.734680000000     0.729070000000     0.061000000000    -0.166765   
N9       N      0.320710000000     0.065120000000     0.869810000000    -0.164573   
N10      N      0.551150000000     0.939840000000     0.867950000000    -0.164347   
N11      N      0.820750000000     0.938310000000     0.885750000000    -0.164436   
N12      N      0.050490000000     0.063210000000     0.887740000000    -0.164532   
N13      N      0.135880000000     0.222010000000     0.203910000000    -0.16683    
N14      N      0.196660000000     0.270730000000     0.322860000000    -0.166497   
N15      N      0.731730000000     0.746310000000     0.194620000000    -0.166727   
N16      N      0.676700000000     0.691340000000     0.313570000000    -0.166505   
N17      N      0.550790000000     0.547890000000     0.389780000000    -0.164527   
N18      N      0.320730000000     0.424480000000     0.394360000000    -0.164134   
N19      N      0.052170000000     0.422870000000     0.373240000000    -0.164375   
N20      N      0.821490000000     0.546980000000     0.369960000000    -0.165021   
N21      N      0.251820000000     0.270470000000     0.576170000000    -0.167336   
N22      N      0.177490000000     0.292840000000     0.456970000000    -0.167156   
N23      N      0.179080000000     0.220620000000     0.817880000000    -0.166942   
N24      N      0.240690000000     0.298920000000     0.702990000000    -0.165168   
N25      N      0.617380000000     0.750770000000     0.563340000000    -0.166369   
N26      N      0.691490000000     0.689470000000     0.447200000000    -0.166906   
N27      N      0.626690000000     0.743750000000     0.691510000000    -0.166799   
N28      N      0.691700000000     0.794260000000     0.809630000000    -0.16692    
N29      N      0.321310000000     0.484800000000     0.576020000000    -0.0949264  
N30      N      0.200830000000     0.411250000000     0.680930000000    -0.097941   
N31      N      0.500690000000     0.912050000000     0.643520000000    -0.165085   
N32      N      0.405310000000     0.152790000000     0.650990000000    -0.1659     
O1       O      0.552380000000     0.852640000000     0.624710000000    -0.492051   
O2       O      0.492210000000     0.825500000000     0.648160000000    -0.493258   
O3       O      0.557920000000     0.788500000000     0.588800000000    -0.498733   
O4       O      0.615490000000     0.778230000000     0.652980000000    -0.504017   
O5       O      0.459030000000     0.752330000000     0.619870000000    -0.47111    
O6       O      0.557340000000     0.728180000000     0.666270000000    -0.500002   
O7       O      0.604420000000     0.729090000000     0.603950000000    -0.499612   
O8       O      0.506840000000     0.688210000000     0.626050000000    -0.473719   
O9       O      0.347600000000     0.363730000000     0.625320000000    -0.480326   
O10      O      0.400300000000     0.331120000000     0.650550000000    -0.468122   
O11      O      0.254990000000     0.269830000000     0.663640000000    -0.497731   
O12      O      0.263110000000     0.307150000000     0.614270000000    -0.496496   
O13      O      0.397330000000     0.233230000000     0.634740000000    -0.488853   
O14      O      0.315370000000     0.248230000000     0.603610000000    -0.503558   
O15      O      0.310750000000     0.319910000000     0.679150000000    -0.505044   
O16      O      0.337080000000     0.206620000000     0.658200000000    -0.501662   
O17      O      0.773310000000     0.619550000000     0.375250000000    -0.502536   
O18      O      0.733210000000     0.548660000000     0.374210000000    -0.486559   
O19      O      0.671620000000     0.689320000000     0.405880000000    -0.497225   
O20      O      0.656760000000     0.627110000000     0.340530000000    -0.507479   
O21      O      0.639100000000     0.548970000000     0.385740000000    -0.485452   
O22      O      0.703860000000     0.687530000000     0.353870000000    -0.494975   
O23      O      0.709460000000     0.623870000000     0.420640000000    -0.511226   
O24      O      0.598780000000     0.620160000000     0.384350000000    -0.501122   
O25      O      0.099630000000     0.350340000000     0.380000000000    -0.499994   
O26      O      0.139780000000     0.421310000000     0.379960000000    -0.48291    
O27      O      0.201370000000     0.286270000000     0.416210000000    -0.496562   
O28      O      0.167320000000     0.279980000000     0.362660000000    -0.493595   
O29      O      0.232720000000     0.422110000000     0.389170000000    -0.482757   
O30      O      0.218600000000     0.336250000000     0.348670000000    -0.508128   
O31      O      0.158290000000     0.351720000000     0.427150000000    -0.512451   
O32      O      0.272960000000     0.351240000000     0.393040000000    -0.499418   
O33      O      0.598850000000     0.866330000000     0.870850000000    -0.498244   
O34      O      0.639240000000     0.936980000000     0.873150000000    -0.482072   
O35      O      0.706150000000     0.796610000000     0.902320000000    -0.495779   
O36      O      0.712690000000     0.858270000000     0.836550000000    -0.508367   
O37      O      0.732340000000     0.936290000000     0.881890000000    -0.482304   
O38      O      0.667190000000     0.797170000000     0.850350000000    -0.49469    
O39      O      0.656830000000     0.854950000000     0.916230000000    -0.507991   
O40      O      0.773220000000     0.865490000000     0.881000000000    -0.497978   
O41      O      0.272790000000     0.137490000000     0.876310000000    -0.499059   
O42      O      0.232430000000     0.066810000000     0.874300000000    -0.483365   
O43      O      0.166650000000     0.201670000000     0.909750000000    -0.495753   
O44      O      0.203530000000     0.210150000000     0.858300000000    -0.495045   
O45      O      0.138890000000     0.065700000000     0.883980000000    -0.483426   
O46      O      0.159130000000     0.151260000000     0.841700000000    -0.507915   
O47      O      0.213350000000     0.139330000000     0.921530000000    -0.507549   
O48      O      0.098150000000     0.136500000000     0.885720000000    -0.498791   
O49      O      0.067930000000     0.149550000000     0.130020000000    -0.501537   
O50      O      0.994960000000     0.187740000000     0.130880000000    -0.484363   
O51      O      0.135570000000     0.247840000000     0.163400000000    -0.495425   
O52      O      0.135690000000     0.219050000000     0.110390000000    -0.49233    
O53      O      0.994490000000     0.282810000000     0.140710000000    -0.484018   
O54      O      0.074070000000     0.266060000000     0.097560000000    -0.508852   
O55      O      0.069990000000     0.207370000000     0.176630000000    -0.510024   
O56      O      0.067290000000     0.320490000000     0.143460000000    -0.500727   
O57      O      0.803270000000     0.650230000000     0.133210000000    -0.501927   
O58      O      0.876060000000     0.688180000000     0.134320000000    -0.485382   
O59      O      0.735780000000     0.752390000000     0.101840000000    -0.495104   
O60      O      0.735210000000     0.719960000000     0.154220000000    -0.49403    
O61      O      0.876660000000     0.783370000000     0.123580000000    -0.484559   
O62      O      0.797470000000     0.764690000000     0.167830000000    -0.509205   
O63      O      0.800000000000     0.710110000000     0.088060000000    -0.509191   
O64      O      0.803840000000     0.821960000000     0.122970000000    -0.501578   


