data_structure

_audit_creation_method RASPA-1.0
_audit_creation_date 2023-6-5
_audit_author_name 'Poobodin Mano'

_cell_length_a    43.483
_cell_length_b    42.8107
_cell_length_c    22.9635
_cell_angle_alpha 89.6814
_cell_angle_beta  90.3186
_cell_angle_gamma 89.9995
_cell_volume      42746.1

_symmetry_cell_setting          triclinic
_symmetry_space_group_name_Hall 'P 1'
_symmetry_space_group_name_H-M  'P 1'
_symmetry_Int_Tables_number     1

_symmetry_equiv_pos_as_xyz 'x,y,z'

loop_
_atom_site_label
_atom_site_type_symbol
_atom_site_fract_x
_atom_site_fract_y
_atom_site_fract_z
_atom_site_charge
C1       C      0.319900000000     0.394350000000     0.002500000000     0.407533   
C2       C      0.295990000000     0.304480000000     0.905210000000     0.404994   
C3       C      0.385340000000     0.325010000000     0.992980000000     0.406662   
C4       C      0.295930000000     0.303240000000     0.088110000000     0.409224   
C5       C      0.317160000000     0.615970000000     0.011270000000     0.404549   
C6       C      0.296100000000     0.705520000000     0.087850000000     0.407302   
C7       C      0.387830000000     0.684200000000     0.994750000000     0.408045   
C8       C      0.301270000000     0.706560000000     0.905280000000     0.401335   
C9       C      0.603840000000     0.322460000000     0.992020000000     0.405446   
C10      C      0.694870000000     0.300610000000     0.906470000000     0.406548   
C11      C      0.668860000000     0.391170000000     0.997630000000     0.404987   
C12      C      0.694600000000     0.301010000000     0.086360000000     0.404202   
C13      C      0.671020000000     0.613250000000     0.999450000000     0.404673   
C14      C      0.696790000000     0.704610000000     0.909160000000     0.404295   
C15      C      0.606240000000     0.682040000000     0.995270000000     0.404769   
C16      C      0.696680000000     0.704180000000     0.088010000000     0.405633   
C17      C      0.823120000000     0.115150000000     0.496990000000     0.405335   
C18      C      0.796970000000     0.205800000000     0.587600000000     0.406264   
C19      C      0.888050000000     0.183960000000     0.502240000000     0.406098   
C20      C      0.797340000000     0.205230000000     0.407740000000     0.404109   
C21      C      0.886540000000     0.824340000000     0.501460000000     0.405104   
C22      C      0.796060000000     0.801780000000     0.587730000000     0.40416    
C23      C      0.821690000000     0.893060000000     0.496850000000     0.405016   
C24      C      0.796040000000     0.802040000000     0.408860000000     0.405513   
C25      C      0.104950000000     0.822700000000     0.501680000000     0.408246   
C26      C      0.196680000000     0.801550000000     0.408390000000     0.40762    
C27      C      0.175430000000     0.891080000000     0.484740000000     0.404072   
C28      C      0.191610000000     0.800540000000     0.590930000000     0.401095   
C29      C      0.106570000000     0.181960000000     0.501560000000     0.407164   
C30      C      0.195930000000     0.202710000000     0.589240000000     0.404727   
C31      C      0.172140000000     0.112720000000     0.492420000000     0.407129   
C32      C      0.195920000000     0.203790000000     0.406390000000     0.409348   
C33      C      0.162570000000     0.941960000000     0.437520000000    -0.0205036  
C34      C      0.191590000000     0.061810000000     0.530920000000    -0.0203205  
C35      C      0.159250000000     0.062460000000     0.444190000000    -0.0201072  
C36      C      0.167950000000     0.030000000000     0.459920000000     0.0139712  
C37      C      0.186580000000     0.029610000000     0.509120000000     0.0141097  
C38      C      0.197570000000     0.001520000000     0.533010000000    -0.0647248  
C39      C      0.196220000000     0.941270000000     0.522410000000    -0.0206729  
C40      C      0.158880000000     0.002320000000     0.432390000000    -0.0648027  
C41      C      0.188800000000     0.973850000000     0.505060000000     0.0139725  
C42      C      0.169800000000     0.974240000000     0.456370000000     0.0138383  
C43      C      0.936300000000     0.816470000000     0.450760000000    -0.0204004  
C44      C      0.055400000000     0.823210000000     0.555970000000    -0.0201588  
C45      C      0.054860000000     0.815280000000     0.451200000000    -0.0202983  
C46      C      0.023100000000     0.816390000000     0.474030000000     0.0142903  
C47      C      0.023330000000     0.820980000000     0.533760000000     0.0134672  
C48      C      0.995910000000     0.823860000000     0.565160000000    -0.0644818  
C49      C      0.936430000000     0.824760000000     0.555440000000    -0.020197   
C50      C      0.995560000000     0.814320000000     0.442390000000    -0.065072   
C51      C      0.968330000000     0.821720000000     0.533490000000     0.0136446  
C52      C      0.968190000000     0.817030000000     0.473790000000     0.0143843  
C53      C      0.827310000000     0.064570000000     0.444530000000    -0.0202008  
C54      C      0.813970000000     0.943680000000     0.547560000000    -0.0204004  
C55      C      0.826120000000     0.943880000000     0.444320000000    -0.0202386  
C56      C      0.823350000000     0.976270000000     0.466330000000     0.0138722  
C57      C      0.816370000000     0.976140000000     0.525170000000     0.0141196  
C58      C      0.812910000000     0.003980000000     0.556270000000    -0.0648407  
C59      C      0.814820000000     0.064310000000     0.547620000000    -0.0203851  
C60      C      0.827360000000     0.004250000000     0.435320000000    -0.0646774  
C61      C      0.816820000000     0.031960000000     0.525220000000     0.014216   
C62      C      0.823900000000     0.032100000000     0.466410000000     0.0139527  
C63      C      0.056660000000     0.195450000000     0.454030000000    -0.0202481  
C64      C      0.938030000000     0.177890000000     0.554460000000    -0.0202043  
C65      C      0.937830000000     0.196380000000     0.454160000000    -0.0204355  
C66      C      0.969810000000     0.192980000000     0.476190000000     0.014151   
C67      C      0.969920000000     0.182330000000     0.533320000000     0.0138827  
C68      C      0.997460000000     0.176240000000     0.563300000000    -0.06464    
C69      C      0.056840000000     0.176250000000     0.553880000000    -0.0200281  
C70      C      0.997240000000     0.198330000000     0.445970000000    -0.0647283  
C71      C      0.024890000000     0.181610000000     0.533090000000     0.0139058  
C72      C      0.024790000000     0.192460000000     0.476090000000     0.0141515  
C73      C      0.698500000000     0.745490000000     0.831740000000    -0.0203075  
C74      C      0.794400000000     0.760950000000     0.665260000000    -0.02038    
C75      C      0.751920000000     0.797610000000     0.655920000000    -0.0203326  
C76      C      0.746670000000     0.775700000000     0.705130000000     0.0141335  
C77      C      0.770900000000     0.754800000000     0.710450000000     0.0141421  
C78      C      0.771360000000     0.731730000000     0.753980000000    -0.064829   
C79      C      0.740980000000     0.708830000000     0.841090000000    -0.020433   
C80      C      0.721550000000     0.774720000000     0.743040000000    -0.0648437  
C81      C      0.746230000000     0.730750000000     0.791900000000     0.0141527  
C82      C      0.722010000000     0.751650000000     0.786580000000     0.0141112  
C83      C      0.736850000000     0.704440000000     0.165730000000    -0.0203536  
C84      C      0.755830000000     0.801730000000     0.331230000000    -0.0204473  
C85      C      0.790390000000     0.757320000000     0.340770000000    -0.0202851  
C86      C      0.768560000000     0.752640000000     0.291740000000     0.0140673  
C87      C      0.748850000000     0.777960000000     0.286290000000     0.0141627  
C88      C      0.726080000000     0.779120000000     0.242890000000    -0.0648306  
C89      C      0.702300000000     0.748860000000     0.156190000000    -0.0203981  
C90      C      0.766600000000     0.727050000000     0.254090000000    -0.0647701  
C91      C      0.724120000000     0.753530000000     0.205250000000     0.0141457  
C92      C      0.743830000000     0.728200000000     0.210690000000     0.0140938  
C93      C      0.795050000000     0.245490000000     0.666390000000    -0.0203674  
C94      C      0.696750000000     0.260970000000     0.827590000000    -0.0203211  
C95      C      0.739910000000     0.296410000000     0.840530000000    -0.0202203  
C96      C      0.745460000000     0.275090000000     0.790990000000     0.0140385  
C97      C      0.720850000000     0.254880000000     0.783610000000     0.0141019  
C98      C      0.720590000000     0.232460000000     0.739380000000    -0.064779   
C99      C      0.751880000000     0.210050000000     0.653430000000    -0.0203191  
C100     C      0.771190000000     0.274020000000     0.754570000000    -0.0647471  
C101     C      0.746320000000     0.231380000000     0.702950000000     0.0140774  
C102     C      0.770940000000     0.251590000000     0.710340000000     0.0140885  
C103     C      0.702450000000     0.255770000000     0.153530000000    -0.0204817  
C104     C      0.789520000000     0.250430000000     0.340490000000    -0.0204065  
C105     C      0.758250000000     0.203820000000     0.328150000000    -0.0205249  
C106     C      0.749980000000     0.227790000000     0.283880000000     0.0141301  
C107     C      0.767810000000     0.254370000000     0.290910000000     0.0140979  
C108     C      0.764320000000     0.280420000000     0.254220000000    -0.0648147  
C109     C      0.733730000000     0.302370000000     0.165870000000    -0.020459   
C110     C      0.727660000000     0.225770000000     0.239780000000    -0.0647928  
C111     C      0.742000000000     0.278390000000     0.210120000000     0.0141232  
C112     C      0.724170000000     0.251810000000     0.203090000000     0.0141227  
C113     C      0.664800000000     0.441650000000     0.050460000000    -0.0202289  
C114     C      0.678590000000     0.562720000000     0.948370000000    -0.0202262  
C115     C      0.666490000000     0.562320000000     0.051620000000    -0.0202556  
C116     C      0.669120000000     0.529980000000     0.029360000000     0.0144318  
C117     C      0.676080000000     0.530210000000     0.970500000000     0.0136475  
C118     C      0.679400000000     0.502430000000     0.939180000000    -0.064567   
C119     C      0.677250000000     0.442090000000     0.947350000000    -0.0201872  
C120     C      0.665000000000     0.501950000000     0.060150000000    -0.0650369  
C121     C      0.675390000000     0.474400000000     0.970010000000     0.0137014  
C122     C      0.668340000000     0.474160000000     0.028820000000     0.0144472  
C123     C      0.277670000000     0.753250000000     0.857830000000    -0.0206965  
C124     C      0.215270000000     0.753870000000     0.638340000000    -0.0207049  
C125     C      0.214230000000     0.803090000000     0.690610000000    -0.0206955  
C126     C      0.231330000000     0.779070000000     0.724480000000     0.0141133  
C127     C      0.231930000000     0.751000000000     0.694670000000     0.0140234  
C128     C      0.247090000000     0.724710000000     0.717440000000    -0.0648859  
C129     C      0.278720000000     0.704040000000     0.805540000000    -0.0206928  
C130     C      0.245860000000     0.782420000000     0.778730000000    -0.0648714  
C131     C      0.261620000000     0.728060000000     0.771680000000     0.0141393  
C132     C      0.261020000000     0.756130000000     0.801490000000     0.0139994  
C133     C      0.239680000000     0.799380000000     0.337120000000    -0.0202497  
C134     C      0.253100000000     0.707710000000     0.159120000000    -0.020354   
C135     C      0.292780000000     0.747710000000     0.161500000000    -0.0200112  
C136     C      0.269950000000     0.753020000000     0.208080000000     0.0141238  
C137     C      0.247320000000     0.730220000000     0.206770000000     0.014163   
C138     C      0.223110000000     0.730110000000     0.246790000000    -0.064811   
C139     C      0.200010000000     0.759370000000     0.334740000000    -0.0200262  
C140     C      0.269670000000     0.776980000000     0.249440000000    -0.0647787  
C141     C      0.222830000000     0.754070000000     0.288150000000     0.0141536  
C142     C      0.245470000000     0.776870000000     0.289470000000     0.0141102  
C143     C      0.437910000000     0.691330000000     0.045400000000    -0.0202266  
C144     C      0.556370000000     0.681870000000     0.941230000000    -0.0201231  
C145     C      0.556480000000     0.689840000000     0.045990000000    -0.020277   
C146     C      0.524590000000     0.689430000000     0.022920000000     0.0147853  
C147     C      0.524470000000     0.684920000000     0.963160000000     0.0132098  
C148     C      0.496890000000     0.682930000000     0.931440000000    -0.0643     
C149     C      0.437410000000     0.683710000000     0.940540000000    -0.0201712  
C150     C      0.497210000000     0.692100000000     0.054310000000    -0.0653687  
C151     C      0.469470000000     0.685780000000     0.962830000000     0.0131262  
C152     C      0.469680000000     0.690190000000     0.022610000000     0.0147658  
C153     C      0.249980000000     0.296440000000     0.841890000000    -0.0203576  
C154     C      0.241960000000     0.210820000000     0.652480000000    -0.0204372  
C155     C      0.195270000000     0.240140000000     0.671860000000    -0.0204683  
C156     C      0.219980000000     0.248930000000     0.713440000000     0.0140291  
C157     C      0.246610000000     0.232210000000     0.702400000000     0.0139944  
C158     C      0.273340000000     0.236450000000     0.735840000000    -0.0647774  
C159     C      0.296660000000     0.267110000000     0.822520000000    -0.0204301  
C160     C      0.218590000000     0.270820000000     0.758520000000    -0.0647881  
C161     C      0.271950000000     0.258340000000     0.780920000000     0.0140259  
C162     C      0.245320000000     0.275060000000     0.791960000000     0.0139601  
C163     C      0.260080000000     0.304820000000     0.172150000000    -0.0200903  
C164     C      0.231730000000     0.202190000000     0.322280000000    -0.0201949  
C165     C      0.205490000000     0.250790000000     0.344690000000    -0.0201838  
C166     C      0.225780000000     0.254860000000     0.293490000000     0.0140162  
C167     C      0.240740000000     0.227150000000     0.280720000000     0.0140494  
C168     C      0.261280000000     0.225010000000     0.234090000000    -0.064844   
C169     C      0.286330000000     0.256230000000     0.149750000000    -0.0201737  
C170     C      0.230520000000     0.282000000000     0.260330000000    -0.0647837  
C171     C      0.266020000000     0.252150000000     0.200930000000     0.0140525  
C172     C      0.251060000000     0.279860000000     0.213700000000     0.0139862  
C173     C      0.554050000000     0.310040000000     0.040060000000    -0.020359   
C174     C      0.435060000000     0.330710000000     0.940660000000    -0.0199247  
C175     C      0.435220000000     0.311300000000     0.040370000000    -0.0201732  
C176     C      0.467100000000     0.314240000000     0.018290000000     0.0146559  
C177     C      0.467000000000     0.325210000000     0.961360000000     0.0134997  
C178     C      0.494440000000     0.330580000000     0.931160000000    -0.0644626  
C179     C      0.553860000000     0.328740000000     0.939900000000    -0.0201129  
C180     C      0.494640000000     0.308230000000     0.048330000000    -0.0650707  
C181     C      0.521970000000     0.324360000000     0.961050000000     0.0134547  
C182     C      0.522080000000     0.313580000000     0.018110000000     0.0145939  
C183     C      0.329910000000     0.565000000000     0.058230000000    -0.020655   
C184     C      0.300540000000     0.445360000000     0.964300000000    -0.0203624  
C185     C      0.332920000000     0.444500000000     0.050960000000    -0.0201637  
C186     C      0.324290000000     0.477010000000     0.035410000000     0.0144288  
C187     C      0.305640000000     0.477510000000     0.986250000000     0.0136728  
C188     C      0.294700000000     0.505660000000     0.962520000000    -0.0645442  
C189     C      0.296210000000     0.565890000000     0.973420000000    -0.0206941  
C190     C      0.333440000000     0.504620000000     0.063060000000    -0.0651191  
C191     C      0.303560000000     0.533270000000     0.990600000000     0.0135716  
C192     C      0.322590000000     0.532760000000     0.039250000000     0.0143734  
H1       H      0.133890000000     0.065640000000     0.444750000000     0.0453845  
H2       H      0.182650000000     0.064500000000     0.575860000000     0.0463696  
H3       H      0.211910000000     0.001180000000     0.571690000000     0.0466647  
H4       H      0.143850000000     0.002610000000     0.394670000000     0.0463334  
H5       H      0.137380000000     0.937500000000     0.438130000000     0.0462916  
H6       H      0.221280000000     0.936660000000     0.518740000000     0.0470325  
H7       H      0.167890000000     0.068890000000     0.400270000000     0.0475452  
H8       H      0.216400000000     0.068040000000     0.530750000000     0.0469548  
H9       H      0.188960000000     0.936290000000     0.567870000000     0.0473878  
H10      H      0.171260000000     0.937540000000     0.392920000000     0.0456663  
H11      H      0.058790000000     0.833990000000     0.418320000000     0.0477669  
H12      H      0.059660000000     0.846010000000     0.577490000000     0.045077   
H13      H      0.996040000000     0.827850000000     0.611670000000     0.046262   
H14      H      0.995440000000     0.811070000000     0.395670000000     0.0466839  
H15      H      0.932540000000     0.835190000000     0.417760000000     0.0464292  
H16      H      0.931020000000     0.806000000000     0.587410000000     0.0471453  
H17      H      0.059790000000     0.792310000000     0.430970000000     0.0467547  
H18      H      0.060550000000     0.804120000000     0.587530000000     0.0451127  
H19      H      0.932750000000     0.847790000000     0.576420000000     0.0456752  
H20      H      0.930850000000     0.793550000000     0.430660000000     0.04737    
H21      H      0.849430000000     0.939430000000     0.426560000000     0.0455807  
H22      H      0.831060000000     0.939160000000     0.582770000000     0.0462535  
H23      H      0.807610000000     0.003880000000     0.602270000000     0.0466414  
H24      H      0.833030000000     0.004350000000     0.389480000000     0.0464653  
H25      H      0.850780000000     0.068730000000     0.427190000000     0.0456045  
H26      H      0.791460000000     0.069410000000     0.564470000000     0.0475783  
H27      H      0.808790000000     0.939150000000     0.409730000000     0.0473172  
H28      H      0.790580000000     0.938810000000     0.564630000000     0.0473063  
H29      H      0.831880000000     0.068360000000     0.583000000000     0.046402   
H30      H      0.810240000000     0.069840000000     0.409640000000     0.0474603  
H31      H      0.933650000000     0.181310000000     0.415660000000     0.0465553  
H32      H      0.933890000000     0.153280000000     0.567970000000     0.0456472  
H33      H      0.997530000000     0.167500000000     0.607630000000     0.0463718  
H34      H      0.997160000000     0.206380000000     0.401190000000     0.0466457  
H35      H      0.060320000000     0.180610000000     0.415120000000     0.0468598  
H36      H      0.062380000000     0.191290000000     0.591800000000     0.0470838  
H37      H      0.932770000000     0.221000000000     0.441910000000     0.046927   
H38      H      0.933140000000     0.193400000000     0.591930000000     0.047084   
H39      H      0.060520000000     0.151430000000     0.566570000000     0.0460442  
H40      H      0.062060000000     0.220070000000     0.442410000000     0.0471735  
H41      H      0.752850000000     0.822210000000     0.671080000000     0.0478941  
H42      H      0.817000000000     0.766840000000     0.685180000000     0.0476743  
H43      H      0.790270000000     0.715410000000     0.758130000000     0.0466476  
H44      H      0.702640000000     0.791030000000     0.738880000000     0.0466606  
H45      H      0.695520000000     0.766010000000     0.860610000000     0.0459198  
H46      H      0.740060000000     0.684240000000     0.825910000000     0.0479348  
H47      H      0.733520000000     0.795540000000     0.622380000000     0.0456698  
H48      H      0.797380000000     0.740420000000     0.636410000000     0.0459758  
H49      H      0.759360000000     0.710900000000     0.874660000000     0.0456578  
H50      H      0.675900000000     0.739610000000     0.811790000000     0.047682   
H51      H      0.814590000000     0.757370000000     0.325450000000     0.0477177  
H52      H      0.762440000000     0.824390000000     0.311040000000     0.0474193  
H53      H      0.710700000000     0.798890000000     0.238630000000     0.0466619  
H54      H      0.781980000000     0.707280000000     0.258340000000     0.0466501  
H55      H      0.756910000000     0.700560000000     0.136860000000     0.0459413  
H56      H      0.678100000000     0.748800000000     0.171500000000     0.0477394  
H57      H      0.787780000000     0.738790000000     0.374480000000     0.0456465  
H58      H      0.735790000000     0.805610000000     0.360120000000     0.0459369  
H59      H      0.704920000000     0.767390000000     0.122500000000     0.0457357  
H60      H      0.730240000000     0.681780000000     0.185890000000     0.0473883  
H61      H      0.739790000000     0.321230000000     0.826080000000     0.0477754  
H62      H      0.674630000000     0.267730000000     0.806550000000     0.0471541  
H63      H      0.701380000000     0.216670000000     0.733610000000     0.0465945  
H64      H      0.790410000000     0.289800000000     0.760350000000     0.0465795  
H65      H      0.799010000000     0.266340000000     0.638380000000     0.0458551  
H66      H      0.751990000000     0.185230000000     0.667910000000     0.0478043  
H67      H      0.757710000000     0.293420000000     0.875040000000     0.0455097  
H68      H      0.692780000000     0.240110000000     0.855580000000     0.0458037  
H69      H      0.734100000000     0.213040000000     0.618900000000     0.0455742  
H70      H      0.817160000000     0.238740000000     0.687450000000     0.0471981  
H71      H      0.766670000000     0.182080000000     0.307360000000     0.0475205  
H72      H      0.813790000000     0.252320000000     0.325950000000     0.04771    
H73      H      0.778230000000     0.301170000000     0.259700000000     0.0466726  
H74      H      0.713750000000     0.205010000000     0.234310000000     0.0466574  
H75      H      0.706580000000     0.238040000000     0.119280000000     0.0457072  
H76      H      0.725330000000     0.324110000000     0.186680000000     0.0475141  
H77      H      0.738280000000     0.197940000000     0.356130000000     0.0461568  
H78      H      0.785380000000     0.268170000000     0.374720000000     0.0456592  
H79      H      0.753700000000     0.308240000000     0.137870000000     0.0461839  
H80      H      0.678190000000     0.253870000000     0.168090000000     0.0477242  
H81      H      0.683860000000     0.566910000000     0.086210000000     0.0473536  
H82      H      0.701990000000     0.567530000000     0.931310000000     0.0472364  
H83      H      0.684680000000     0.502620000000     0.893160000000     0.0465402  
H84      H      0.659350000000     0.501760000000     0.106000000000     0.0465369  
H85      H      0.681860000000     0.436240000000     0.085290000000     0.0475152  
H86      H      0.660150000000     0.438180000000     0.911980000000     0.0463431  
H87      H      0.643210000000     0.566820000000     0.069480000000     0.0456425  
H88      H      0.661500000000     0.567380000000     0.913210000000     0.046216   
H89      H      0.700590000000     0.436940000000     0.930410000000     0.0475185  
H90      H      0.641320000000     0.437540000000     0.067770000000     0.0456669  
H91      H      0.229020000000     0.823580000000     0.680600000000     0.0481536  
H92      H      0.230610000000     0.748690000000     0.601050000000     0.0463656  
H93      H      0.247560000000     0.702800000000     0.694170000000     0.0466022  
H94      H      0.245390000000     0.804330000000     0.802000000000     0.0465764  
H95      H      0.297730000000     0.769300000000     0.859500000000     0.0458101  
H96      H      0.263930000000     0.683540000000     0.815530000000     0.048172   
H97      H      0.193660000000     0.811250000000     0.714670000000     0.0469559  
H98      H      0.195210000000     0.737810000000     0.636690000000     0.0458331  
H99      H      0.299300000000     0.695890000000     0.781500000000     0.0469744  
H100     H      0.262330000000     0.758440000000     0.895110000000     0.0463286  
H101     H      0.316200000000     0.744060000000     0.179950000000     0.047737   
H102     H      0.256240000000     0.683610000000     0.176370000000     0.046035   
H103     H      0.205430000000     0.712320000000     0.245820000000     0.0466125  
H104     H      0.287360000000     0.794760000000     0.250420000000     0.046599   
H105     H      0.258900000000     0.799420000000     0.369220000000     0.0455484  
H106     H      0.176590000000     0.763030000000     0.316280000000     0.0477629  
H107     H      0.293510000000     0.767760000000     0.130570000000     0.0478972  
H108     H      0.233890000000     0.707670000000     0.127020000000     0.0456312  
H109     H      0.199280000000     0.739320000000     0.365650000000     0.0478773  
H110     H      0.236540000000     0.823480000000     0.319870000000     0.0460017  
H111     H      0.560180000000     0.671000000000     0.078790000000     0.0464123  
H112     H      0.560000000000     0.658900000000     0.920020000000     0.0456384  
H113     H      0.496770000000     0.679090000000     0.884880000000     0.0461976  
H114     H      0.497320000000     0.695210000000     0.101060000000     0.0467468  
H115     H      0.433910000000     0.672530000000     0.078080000000     0.0477908  
H116     H      0.432320000000     0.702900000000     0.909170000000     0.045116   
H117     H      0.561970000000     0.712680000000     0.066360000000     0.0473881  
H118     H      0.561830000000     0.700710000000     0.909460000000     0.0471339  
H119     H      0.433090000000     0.660990000000     0.918790000000     0.0450889  
H120     H      0.433040000000     0.714250000000     0.065860000000     0.0467887  
H121     H      0.187500000000     0.260610000000     0.645690000000     0.0462765  
H122     H      0.258060000000     0.216300000000     0.616420000000     0.0456447  
H123     H      0.294130000000     0.223390000000     0.727230000000     0.0465364  
H124     H      0.197800000000     0.283870000000     0.767140000000     0.0465382  
H125     H      0.246670000000     0.321220000000     0.828570000000     0.0474004  
H126     H      0.304430000000     0.246630000000     0.848660000000     0.0462521  
H127     H      0.175120000000     0.230110000000     0.694920000000     0.0470136  
H128     H      0.245280000000     0.186050000000     0.665820000000     0.0474549  
H129     H      0.316810000000     0.277150000000     0.799470000000     0.0470054  
H130     H      0.233870000000     0.290960000000     0.877940000000     0.0455754  
H131     H      0.181060000000     0.255510000000     0.333160000000     0.0473243  
H132     H      0.220580000000     0.182340000000     0.299430000000     0.0466945  
H133     H      0.272960000000     0.203380000000     0.224140000000     0.0465484  
H134     H      0.218850000000     0.303640000000     0.270290000000     0.0465098  
H135     H      0.239850000000     0.313770000000     0.147400000000     0.0458488  
H136     H      0.310750000000     0.251500000000     0.161280000000     0.0473472  
H137     H      0.212390000000     0.266520000000     0.380800000000     0.0453382  
H138     H      0.251960000000     0.193250000000     0.347020000000     0.0458713  
H139     H      0.279420000000     0.240510000000     0.113610000000     0.0453663  
H140     H      0.271230000000     0.324680000000     0.195020000000     0.046657   
H141     H      0.431620000000     0.326080000000     0.079390000000     0.046877   
H142     H      0.431440000000     0.355560000000     0.928160000000     0.0460072  
H143     H      0.494370000000     0.339400000000     0.886890000000     0.0463105  
H144     H      0.494720000000     0.300090000000     0.093040000000     0.0467346  
H145     H      0.558300000000     0.325010000000     0.078680000000     0.0465607  
H146     H      0.558690000000     0.313300000000     0.902310000000     0.0470307  
H147     H      0.429760000000     0.286670000000     0.051830000000     0.0472174  
H148     H      0.429460000000     0.315770000000     0.902630000000     0.0470636  
H149     H      0.558060000000     0.353360000000     0.926550000000     0.0456178  
H150     H      0.559050000000     0.285370000000     0.052110000000     0.0469395  
H151     H      0.324300000000     0.438030000000     0.094870000000     0.0475492  
H152     H      0.275720000000     0.439190000000     0.964480000000     0.0468922  
H153     H      0.280340000000     0.506090000000     0.923870000000     0.0465921  
H154     H      0.348500000000     0.504240000000     0.100750000000     0.0463933  
H155     H      0.321250000000     0.569380000000     0.102880000000     0.0457125  
H156     H      0.303450000000     0.570920000000     0.927970000000     0.0473851  
H157     H      0.358280000000     0.441260000000     0.050330000000     0.0454393  
H158     H      0.309450000000     0.442710000000     0.919320000000     0.046348   
H159     H      0.271160000000     0.570560000000     0.977170000000     0.0469744  
H160     H      0.355100000000     0.569400000000     0.057600000000     0.0463897  
In1      In     0.323840000000     0.331560000000     0.997330000000     2.39845    
In2      In     0.326050000000     0.678050000000     0.999490000000     2.39025    
In3      In     0.665560000000     0.328390000000     0.995500000000     2.40139    
In4      In     0.667880000000     0.676100000000     0.998180000000     2.40486    
In5      In     0.826340000000     0.177940000000     0.498750000000     2.40252    
In6      In     0.824890000000     0.830210000000     0.498540000000     2.40491    
In7      In     0.166710000000     0.828990000000     0.496750000000     2.39108    
In8      In     0.168070000000     0.175500000000     0.497270000000     2.39878    
N1       N      0.178790000000     0.922510000000     0.480450000000    -0.166005   
N2       N      0.174210000000     0.081150000000     0.489460000000    -0.166286   
N3       N      0.917610000000     0.821670000000     0.502660000000    -0.166158   
N4       N      0.073900000000     0.820010000000     0.503220000000    -0.167519   
N5       N      0.821650000000     0.083510000000     0.496300000000    -0.165931   
N6       N      0.820380000000     0.924700000000     0.496150000000    -0.166282   
N7       N      0.075520000000     0.184810000000     0.503350000000    -0.165729   
N8       N      0.919140000000     0.186440000000     0.503810000000    -0.166383   
N9       N      0.711210000000     0.718820000000     0.864020000000    -0.166095   
N10      N      0.781670000000     0.787610000000     0.632960000000    -0.166028   
N11      N      0.711050000000     0.718250000000     0.133390000000    -0.166419   
N12      N      0.781650000000     0.787930000000     0.363550000000    -0.166427   
N13      N      0.782240000000     0.219630000000     0.632530000000    -0.166559   
N14      N      0.709570000000     0.286820000000     0.861470000000    -0.166683   
N15      N      0.709260000000     0.287300000000     0.132110000000    -0.165999   
N16      N      0.782710000000     0.218910000000     0.361930000000    -0.166022   
N17      N      0.670380000000     0.422800000000     0.998530000000    -0.166037   
N18      N      0.672270000000     0.581600000000     0.999930000000    -0.166325   
N19      N      0.287670000000     0.720570000000     0.858690000000    -0.165543   
N20      N      0.205260000000     0.786550000000     0.637490000000    -0.165507   
N21      N      0.211320000000     0.787630000000     0.363470000000    -0.166126   
N22      N      0.281460000000     0.719460000000     0.132760000000    -0.166022   
N23      N      0.418890000000     0.686810000000     0.993300000000    -0.167605   
N24      N      0.575180000000     0.684760000000     0.994070000000    -0.166288   
N25      N      0.281920000000     0.290530000000     0.859340000000    -0.166307   
N26      N      0.210010000000     0.216710000000     0.635060000000    -0.166177   
N27      N      0.281810000000     0.289070000000     0.133630000000    -0.167403   
N28      N      0.210020000000     0.217950000000     0.360820000000    -0.167363   
N29      N      0.572740000000     0.320040000000     0.990460000000    -0.16639    
N30      N      0.416380000000     0.322100000000     0.991150000000    -0.165827   
N31      N      0.313710000000     0.584550000000     0.015430000000    -0.165973   
N32      N      0.317900000000     0.425910000000     0.005620000000    -0.166285   
O1       O      0.291430000000     0.331530000000     0.075330000000    -0.503488   
O2       O      0.314470000000     0.289080000000     0.055540000000    -0.499396   
O3       O      0.323370000000     0.298460000000     0.919600000000    -0.497237   
O4       O      0.307600000000     0.378920000000     0.961930000000    -0.493811   
O5       O      0.369970000000     0.317600000000     0.037440000000    -0.49543    
O6       O      0.334180000000     0.378370000000     0.040160000000    -0.501041   
O7       O      0.282560000000     0.324230000000     0.936700000000    -0.495818   
O8       O      0.369860000000     0.335550000000     0.950540000000    -0.497518   
O9       O      0.308170000000     0.677960000000     0.905750000000    -0.484793   
O10      O      0.307300000000     0.721060000000     0.951590000000    -0.499005   
O11      O      0.286160000000     0.680970000000     0.064040000000    -0.501618   
O12      O      0.303540000000     0.632040000000     0.972870000000    -0.488591   
O13      O      0.371730000000     0.679830000000     0.949730000000    -0.504438   
O14      O      0.334770000000     0.631080000000     0.044610000000    -0.500836   
O15      O      0.320740000000     0.716250000000     0.067120000000    -0.490851   
O16      O      0.373020000000     0.685640000000     0.041570000000    -0.49582    
O17      O      0.673570000000     0.287460000000     0.058130000000    -0.496599   
O18      O      0.701060000000     0.328230000000     0.069120000000    -0.497275   
O19      O      0.668610000000     0.292020000000     0.923200000000    -0.500025   
O20      O      0.619420000000     0.316070000000     0.037040000000    -0.495732   
O21      O      0.673740000000     0.375690000000     0.952040000000    -0.495629   
O22      O      0.619180000000     0.331560000000     0.948700000000    -0.500256   
O23      O      0.706450000000     0.323030000000     0.934360000000    -0.498759   
O24      O      0.662380000000     0.375210000000     0.042260000000    -0.497504   
O25      O      0.674370000000     0.716620000000     0.061350000000    -0.498561   
O26      O      0.704620000000     0.677690000000     0.069650000000    -0.499047   
O27      O      0.708190000000     0.681420000000     0.935630000000    -0.497514   
O28      O      0.675370000000     0.629130000000     0.953820000000    -0.496973   
O29      O      0.621610000000     0.684240000000     0.041800000000    -0.497726   
O30      O      0.665250000000     0.628840000000     0.044520000000    -0.498932   
O31      O      0.670970000000     0.713570000000     0.927390000000    -0.498013   
O32      O      0.621750000000     0.676970000000     0.950050000000    -0.497681   
O33      O      0.818350000000     0.218810000000     0.436000000000    -0.496802   
O34      O      0.790900000000     0.178010000000     0.425030000000    -0.497438   
O35      O      0.823240000000     0.214370000000     0.570930000000    -0.500015   
O36      O      0.818200000000     0.130710000000     0.542480000000    -0.495893   
O37      O      0.872480000000     0.190210000000     0.457160000000    -0.496255   
O38      O      0.829570000000     0.131040000000     0.452270000000    -0.497941   
O39      O      0.785390000000     0.183360000000     0.559730000000    -0.498619   
O40      O      0.872710000000     0.174940000000     0.545620000000    -0.500431   
O41      O      0.818380000000     0.789630000000     0.435490000000    -0.49851    
O42      O      0.788100000000     0.828540000000     0.427170000000    -0.499151   
O43      O      0.821860000000     0.792790000000     0.569450000000    -0.497978   
O44      O      0.871040000000     0.829540000000     0.546630000000    -0.497848   
O45      O      0.827510000000     0.877390000000     0.451900000000    -0.499175   
O46      O      0.871170000000     0.821980000000     0.454960000000    -0.497818   
O47      O      0.784640000000     0.824950000000     0.561240000000    -0.497494   
O48      O      0.817330000000     0.877260000000     0.542580000000    -0.496878   
O49      O      0.185540000000     0.786020000000     0.544650000000    -0.498965   
O50      O      0.184690000000     0.829140000000     0.590440000000    -0.48467    
O51      O      0.172050000000     0.790810000000     0.429110000000    -0.491172   
O52      O      0.119740000000     0.821170000000     0.454850000000    -0.49621    
O53      O      0.189070000000     0.875100000000     0.523240000000    -0.488419   
O54      O      0.121060000000     0.827230000000     0.546640000000    -0.504376   
O55      O      0.206610000000     0.826100000000     0.432220000000    -0.501873   
O56      O      0.157880000000     0.875880000000     0.451420000000    -0.500933   
O57      O      0.177400000000     0.217960000000     0.438970000000    -0.499585   
O58      O      0.200440000000     0.175510000000     0.419190000000    -0.503513   
O59      O      0.168530000000     0.208690000000     0.574890000000    -0.496929   
O60      O      0.121920000000     0.189310000000     0.457060000000    -0.495983   
O61      O      0.184390000000     0.128230000000     0.532930000000    -0.493687   
O62      O      0.122050000000     0.171530000000     0.544080000000    -0.497713   
O63      O      0.209370000000     0.182950000000     0.557800000000    -0.495703   
O64      O      0.157850000000     0.128610000000     0.454650000000    -0.501137   


