data_structure

_audit_creation_method RASPA-1.0
_audit_creation_date 2023-5-23
_audit_author_name 'Poobodin Mano'

_cell_length_a    32.6396
_cell_length_b    32.8035
_cell_length_c    35.4035
_cell_angle_alpha 89.9922
_cell_angle_beta  89.7255
_cell_angle_gamma 119.999
_cell_volume      32827.6

_symmetry_cell_setting          triclinic
_symmetry_space_group_name_Hall 'P 1'
_symmetry_space_group_name_H-M  'P 1'
_symmetry_Int_Tables_number     1

_symmetry_equiv_pos_as_xyz 'x,y,z'

loop_
_atom_site_label
_atom_site_type_symbol
_atom_site_fract_x
_atom_site_fract_y
_atom_site_fract_z
_atom_site_charge
C1       C      0.724230000000     0.582570000000     0.239180000000     0.399563   
C2       C      0.855540000000     0.582280000000     0.291080000000     0.400108   
C3       C      0.711990000000     0.489110000000     0.325440000000     0.408613   
C4       C      0.773620000000     0.488830000000     0.204950000000     0.408794   
C5       C      0.572560000000     0.863370000000     0.069540000000     0.400541   
C6       C      0.572920000000     0.732730000000     0.122040000000     0.401126   
C7       C      0.478570000000     0.781060000000     0.156140000000     0.408181   
C8       C      0.478600000000     0.720750000000     0.035750000000     0.408387   
C9       C      0.855630000000     0.299880000000     0.906240000000     0.399755   
C10      C      0.724100000000     0.168420000000     0.958290000000     0.398902   
C11      C      0.773190000000     0.311520000000     0.992460000000     0.408754   
C12      C      0.712140000000     0.248810000000     0.872130000000     0.408628   
C13      C      0.159150000000     0.448820000000     0.789280000000     0.402606   
C14      C      0.289890000000     0.447830000000     0.738230000000     0.401721   
C15      C      0.245050000000     0.544820000000     0.703190000000     0.408081   
C16      C      0.301610000000     0.543940000000     0.823530000000     0.408278   
C17      C      0.443420000000     0.296860000000     0.624830000000     0.399388   
C18      C      0.443470000000     0.165660000000     0.572020000000     0.399204   
C19      C      0.536180000000     0.309550000000     0.538490000000     0.408621   
C20      C      0.535250000000     0.244800000000     0.658410000000     0.408731   
C21      C      0.290060000000     0.864020000000     0.456460000000     0.401206   
C22      C      0.159070000000     0.733380000000     0.405450000000     0.402043   
C23      C      0.301720000000     0.781020000000     0.370250000000     0.407947   
C24      C      0.244050000000     0.722010000000     0.490940000000     0.408495   
C25      C      0.445300000000     0.097870000000     0.542630000000    -0.0204589  
C26      C      0.286250000000     0.931400000000     0.485560000000    -0.0205952  
C27      C      0.362730000000     0.937260000000     0.475340000000    -0.0203341  
C28      C      0.368360000000     0.979410000000     0.495310000000     0.0142261  
C29      C      0.324840000000     0.976300000000     0.501060000000     0.0139443  
C30      C      0.321030000000     0.012030000000     0.519680000000    -0.0645869  
C31      C      0.369370000000     0.093470000000     0.552220000000    -0.0207436  
C32      C      0.410390000000     0.018050000000     0.508070000000    -0.065147   
C33      C      0.363180000000     0.050880000000     0.532320000000     0.013953   
C34      C      0.406570000000     0.053620000000     0.526770000000     0.0142662  
C35      C      0.362510000000     0.445940000000     0.720240000000    -0.0203067  
C36      C      0.369220000000     0.295910000000     0.644110000000    -0.020671   
C37      C      0.445310000000     0.366380000000     0.654370000000    -0.020425   
C38      C      0.406470000000     0.372500000000     0.669760000000     0.0143094  
C39      C      0.362990000000     0.332460000000     0.663820000000     0.0139034  
C40      C      0.320720000000     0.329870000000     0.675880000000    -0.0645658  
C41      C      0.285850000000     0.376480000000     0.709270000000    -0.0206359  
C42      C      0.410280000000     0.411900000000     0.688320000000    -0.0651662  
C43      C      0.324520000000     0.369460000000     0.694360000000     0.0139362  
C44      C      0.368140000000     0.409220000000     0.700530000000     0.0142423  
C45      C      0.242130000000     0.554600000000     0.633680000000    -0.0202104  
C46      C      0.240380000000     0.708790000000     0.560400000000    -0.0201673  
C47      C      0.243060000000     0.651570000000     0.518320000000    -0.0202751  
C48      C      0.241890000000     0.637620000000     0.558350000000     0.0140325  
C49      C      0.240910000000     0.670540000000     0.582340000000     0.0138805  
C50      C      0.241220000000     0.666020000000     0.621680000000    -0.0648513  
C51      C      0.243230000000     0.613760000000     0.675710000000    -0.020222   
C52      C      0.242140000000     0.597790000000     0.572360000000    -0.0648369  
C53      C      0.241930000000     0.626420000000     0.635700000000     0.0140428  
C54      C      0.241840000000     0.592960000000     0.611710000000     0.0138835  
C55      C      0.927570000000     0.297760000000     0.884920000000    -0.020708   
C56      C      0.086210000000     0.448600000000     0.809810000000    -0.0202328  
C57      C      0.090660000000     0.377260000000     0.817490000000    -0.0205879  
C58      C      0.045820000000     0.371000000000     0.833790000000     0.0139766  
C59      C      0.043540000000     0.411830000000     0.829550000000     0.0141724  
C60      C      0.005170000000     0.415330000000     0.843390000000    -0.0649837  
C61      C      0.924800000000     0.370110000000     0.878250000000    -0.0203446  
C62      C      0.009400000000     0.331090000000     0.851800000000    -0.0645687  
C63      C      0.968960000000     0.375610000000     0.861520000000     0.0141587  
C64      C      0.970800000000     0.334500000000     0.865460000000     0.0139517  
C65      C      0.542150000000     0.237940000000     0.727800000000    -0.0201383  
C66      C      0.699110000000     0.242860000000     0.802660000000    -0.0202157  
C67      C      0.639830000000     0.243580000000     0.844090000000    -0.0202161  
C68      C      0.625890000000     0.241020000000     0.803950000000     0.0140173  
C69      C      0.660040000000     0.241320000000     0.780310000000     0.0139279  
C70      C      0.656110000000     0.241500000000     0.740920000000    -0.0648346  
C71      C      0.603770000000     0.242130000000     0.686350000000    -0.0203666  
C72      C      0.585220000000     0.239460000000     0.789530000000    -0.0647602  
C73      C      0.615680000000     0.240460000000     0.726490000000     0.0140883  
C74      C      0.580880000000     0.238780000000     0.750140000000     0.0138581  
C75      C      0.409510000000     0.783030000000     0.184250000000    -0.020189   
C76      C      0.373340000000     0.784330000000     0.342030000000    -0.0201653  
C77      C      0.314380000000     0.784890000000     0.300650000000    -0.0201404  
C78      C      0.353160000000     0.785410000000     0.278250000000     0.0139052  
C79      C      0.387080000000     0.785700000000     0.301860000000     0.0140629  
C80      C      0.427490000000     0.786440000000     0.287390000000    -0.0648188  
C81      C      0.470500000000     0.786640000000     0.225610000000    -0.0201995  
C82      C      0.357170000000     0.784660000000     0.238860000000    -0.0647951  
C83      C      0.431850000000     0.786400000000     0.247990000000     0.0139176  
C84      C      0.397360000000     0.784940000000     0.224390000000     0.0140231  
C85      C      0.571770000000     0.934760000000     0.047350000000    -0.0202797  
C86      C      0.726940000000     0.097650000000     0.980590000000    -0.0206514  
C87      C      0.652570000000     0.097810000000     0.983150000000    -0.0204193  
C88      C      0.646920000000     0.053770000000     0.999610000000     0.0142394  
C89      C      0.689210000000     0.053450000000     0.998070000000     0.0139144  
C90      C      0.692740000000     0.015310000000     0.012070000000    -0.0645422  
C91      C      0.645370000000     0.933150000000     0.044110000000    -0.0206366  
C92      C      0.605990000000     0.016340000000     0.015460000000    -0.0651159  
C93      C      0.651660000000     0.977690000000     0.027810000000     0.0139313  
C94      C      0.609560000000     0.978380000000     0.029570000000     0.0141943  
C95      C      0.313860000000     0.553470000000     0.893030000000    -0.0202418  
C96      C      0.470640000000     0.706700000000     0.966370000000    -0.0202394  
C97      C      0.409260000000     0.650250000000     0.008350000000    -0.0202084  
C98      C      0.397110000000     0.636060000000     0.968350000000     0.0140444  
C99      C      0.431830000000     0.668550000000     0.944400000000     0.0138854  
C100     C      0.427570000000     0.663900000000     0.905040000000    -0.0648308  
C101     C      0.373320000000     0.611970000000     0.850970000000    -0.0201315  
C102     C      0.356720000000     0.596510000000     0.954330000000    -0.064842   
C103     C      0.386970000000     0.624570000000     0.891010000000     0.0140201  
C104     C      0.352780000000     0.591510000000     0.914990000000     0.0139571  
C105     C      0.698670000000     0.480220000000     0.394980000000    -0.0201561  
C106     C      0.543590000000     0.324700000000     0.469220000000    -0.0201678  
C107     C      0.604570000000     0.381290000000     0.510840000000    -0.0202753  
C108     C      0.616330000000     0.396160000000     0.470810000000     0.0140094  
C109     C      0.581910000000     0.363520000000     0.447050000000     0.0139263  
C110     C      0.586150000000     0.368480000000     0.407690000000    -0.064841   
C111     C      0.640080000000     0.421130000000     0.353300000000    -0.0202625  
C112     C      0.656250000000     0.436310000000     0.456550000000    -0.064789   
C113     C      0.626310000000     0.408370000000     0.393420000000     0.0140781  
C114     C      0.660070000000     0.441700000000     0.417190000000     0.0138584  
C115     C      0.089850000000     0.736950000000     0.379630000000    -0.0205972  
C116     C      0.925490000000     0.580890000000     0.316680000000    -0.0202887  
C117     C      0.926500000000     0.655440000000     0.313980000000    -0.0206752  
C118     C      0.970160000000     0.661510000000     0.332140000000     0.0138963  
C119     C      0.969310000000     0.618860000000     0.333830000000     0.0141545  
C120     C      0.006060000000     0.614970000000     0.350400000000    -0.0650098  
C121     C      0.087020000000     0.661580000000     0.383490000000    -0.02028    
C122     C      0.008320000000     0.702870000000     0.346560000000    -0.0644965  
C123     C      0.043980000000     0.656180000000     0.365010000000     0.0141998  
C124     C      0.045310000000     0.699030000000     0.362960000000     0.0139389  
C125     C      0.572140000000     0.661370000000     0.146370000000    -0.0203894  
C126     C      0.727220000000     0.655430000000     0.214670000000    -0.0207187  
C127     C      0.652530000000     0.581510000000     0.214830000000    -0.020426   
C128     C      0.647040000000     0.619170000000     0.196700000000     0.0142876  
C129     C      0.689500000000     0.661450000000     0.196730000000     0.0139195  
C130     C      0.693200000000     0.702420000000     0.180950000000    -0.0645209  
C131     C      0.645950000000     0.736130000000     0.147110000000    -0.0205932  
C132     C      0.606140000000     0.615260000000     0.180620000000    -0.0651712  
C133     C      0.652130000000     0.698570000000     0.165010000000     0.0138939  
C134     C      0.609900000000     0.656070000000     0.164710000000     0.0142839  
C135     C      0.778770000000     0.480310000000     0.135490000000    -0.0201942  
C136     C      0.778490000000     0.325310000000     0.061840000000    -0.0201516  
C137     C      0.776050000000     0.382790000000     0.019940000000    -0.0203018  
C138     C      0.777980000000     0.396990000000     0.059970000000     0.0140144  
C139     C      0.778690000000     0.363870000000     0.083880000000     0.0138764  
C140     C      0.778430000000     0.368290000000     0.123240000000    -0.0648965  
C141     C      0.776560000000     0.420500000000     0.177400000000    -0.0202225  
C142     C      0.778300000000     0.437060000000     0.074070000000    -0.0648029  
C143     C      0.778230000000     0.408110000000     0.137340000000     0.0140467  
C144     C      0.778820000000     0.441880000000     0.113430000000     0.0138371  
H1       H      0.376860000000     0.918570000000     0.492350000000     0.0471376  
H2       H      0.260570000000     0.909690000000     0.507960000000     0.0482113  
H3       H      0.287100000000     0.009720000000     0.524130000000     0.0467664  
H4       H      0.444310000000     0.020310000000     0.503710000000     0.0464191  
H5       H      0.463960000000     0.090590000000     0.565520000000     0.0458196  
H6       H      0.356150000000     0.112750000000     0.534940000000     0.0483551  
H7       H      0.381170000000     0.946870000000     0.447540000000     0.0456603  
H8       H      0.266920000000     0.937990000000     0.462800000000     0.0462871  
H9       H      0.350510000000     0.084150000000     0.579840000000     0.0460575  
H10      H      0.471490000000     0.119460000000     0.520470000000     0.0475506  
H11      H      0.470670000000     0.370190000000     0.676820000000     0.0475284  
H12      H      0.355200000000     0.263280000000     0.661370000000     0.0482843  
H13      H      0.286710000000     0.298760000000     0.671100000000     0.0467508  
H14      H      0.444280000000     0.443080000000     0.692990000000     0.0464055  
H15      H      0.380040000000     0.454160000000     0.748250000000     0.0456637  
H16      H      0.261070000000     0.373290000000     0.686520000000     0.0481697  
H17      H      0.464930000000     0.392450000000     0.631660000000     0.045904   
H18      H      0.351120000000     0.286890000000     0.616330000000     0.0460037  
H19      H      0.265510000000     0.350540000000     0.731860000000     0.0462921  
H20      H      0.377600000000     0.478900000000     0.703280000000     0.0471301  
H21      H      0.211820000000     0.624540000000     0.502660000000     0.0465662  
H22      H      0.207550000000     0.710130000000     0.566040000000     0.0458414  
H23      H      0.241100000000     0.692040000000     0.640410000000     0.0463979  
H24      H      0.242720000000     0.572000000000     0.553630000000     0.0464043  
H25      H      0.209790000000     0.520220000000     0.628210000000     0.0459605  
H26      H      0.275600000000     0.641120000000     0.690020000000     0.0473136  
H27      H      0.275710000000     0.657070000000     0.503790000000     0.0473739  
H28      H      0.271420000000     0.743630000000     0.567210000000     0.0451565  
H29      H      0.211700000000     0.609090000000     0.691580000000     0.0467501  
H30      H      0.273690000000     0.551470000000     0.626750000000     0.0450881  
H31      H      0.083660000000     0.352150000000     0.794020000000     0.0460953  
H32      H      0.076810000000     0.458530000000     0.782540000000     0.0456107  
H33      H      0.003580000000     0.447340000000     0.840210000000     0.0463627  
H34      H      0.011030000000     0.299120000000     0.855010000000     0.0467442  
H35      H      0.907820000000     0.266170000000     0.866840000000     0.0484026  
H36      H      0.932540000000     0.395040000000     0.902000000000     0.045732   
H37      H      0.112150000000     0.372190000000     0.839250000000     0.0482296  
H38      H      0.105430000000     0.480700000000     0.827450000000     0.0471662  
H39      H      0.903550000000     0.376100000000     0.856840000000     0.0475002  
H40      H      0.936480000000     0.286840000000     0.911940000000     0.0460164  
H41      H      0.613410000000     0.212250000000     0.860220000000     0.0462233  
H42      H      0.701870000000     0.210840000000     0.797860000000     0.0457449  
H43      H      0.683270000000     0.242780000000     0.722460000000     0.0464311  
H44      H      0.558540000000     0.239190000000     0.807990000000     0.0464022  
H45      H      0.508210000000     0.204730000000     0.732680000000     0.0455182  
H46      H      0.631140000000     0.274860000000     0.672280000000     0.0479854  
H47      H      0.643760000000     0.275770000000     0.857890000000     0.0476858  
H48      H      0.733610000000     0.274380000000     0.795440000000     0.0454903  
H49      H      0.600230000000     0.211320000000     0.670470000000     0.0458216  
H50      H      0.537160000000     0.268170000000     0.734960000000     0.0457477  
H51      H      0.279690000000     0.753420000000     0.294090000000     0.045246   
H52      H      0.368980000000     0.752300000000     0.356480000000     0.0475493  
H53      H      0.454020000000     0.786760000000     0.305820000000     0.0464062  
H54      H      0.330290000000     0.783610000000     0.220430000000     0.0464211  
H55      H      0.382130000000     0.750290000000     0.170450000000     0.0476393  
H56      H      0.504680000000     0.819520000000     0.230370000000     0.0458042  
H57      H      0.311990000000     0.817000000000     0.295200000000     0.0459536  
H58      H      0.400100000000     0.815870000000     0.357510000000     0.0467512  
H59      H      0.474810000000     0.756030000000     0.232830000000     0.0453645  
H60      H      0.413310000000     0.813830000000     0.168150000000     0.0465289  
H61      H      0.643980000000     0.117620000000     0.004180000000     0.0473409  
H62      H      0.756810000000     0.117340000000     0.000380000000     0.0482122  
H63      H      0.725690000000     0.014920000000     0.010790000000     0.0467404  
H64      H      0.573050000000     0.016740000000     0.016760000000     0.0463908  
H65      H      0.558590000000     0.942670000000     0.073770000000     0.045794   
H66      H      0.653130000000     0.912950000000     0.022860000000     0.0480997  
H67      H      0.629480000000     0.090400000000     0.958130000000     0.0458415  
H68      H      0.740850000000     0.090310000000     0.954310000000     0.0462446  
H69      H      0.668680000000     0.940100000000     0.068910000000     0.0463117  
H70      H      0.541480000000     0.915360000000     0.027860000000     0.0470523  
H71      H      0.412710000000     0.623140000000     0.024600000000     0.0464578  
H72      H      0.504660000000     0.707460000000     0.961470000000     0.0457304  
H73      H      0.454300000000     0.689670000000     0.886330000000     0.046413   
H74      H      0.329660000000     0.571090000000     0.973040000000     0.0464257  
H75      H      0.311010000000     0.518850000000     0.898840000000     0.0460401  
H76      H      0.369310000000     0.639700000000     0.836270000000     0.0474098  
H77      H      0.382060000000     0.656150000000     0.022250000000     0.0476001  
H78      H      0.475320000000     0.741700000000     0.958900000000     0.045293   
H79      H      0.399960000000     0.606620000000     0.835490000000     0.0467964  
H80      H      0.279330000000     0.550920000000     0.899640000000     0.0452315  
H81      H      0.600530000000     0.407760000000     0.527540000000     0.0459293  
H82      H      0.509240000000     0.323370000000     0.464940000000     0.04562    
H83      H      0.559770000000     0.342490000000     0.389120000000     0.0464295  
H84      H      0.683110000000     0.461820000000     0.475090000000     0.0464175  
H85      H      0.700530000000     0.514440000000     0.400590000000     0.0456779  
H86      H      0.644610000000     0.393680000000     0.338610000000     0.0478389  
H87      H      0.632280000000     0.375880000000     0.524140000000     0.0477772  
H88      H      0.539500000000     0.290050000000     0.461360000000     0.0455814  
H89      H      0.613250000000     0.426060000000     0.337960000000     0.0462627  
H90      H      0.733550000000     0.483710000000     0.401550000000     0.04539    
H91      H      0.934930000000     0.676870000000     0.287780000000     0.0460318  
H92      H      0.933670000000     0.565510000000     0.291780000000     0.0457956  
H93      H      0.005220000000     0.581590000000     0.351840000000     0.0463691  
H94      H      0.009190000000     0.736260000000     0.345090000000     0.0467125  
H95      H      0.110960000000     0.764810000000     0.358490000000     0.0482229  
H96      H      0.078000000000     0.640660000000     0.410020000000     0.0456843  
H97      H      0.906260000000     0.665560000000     0.333430000000     0.0482495  
H98      H      0.904680000000     0.552310000000     0.337380000000     0.0473204  
H99      H      0.106710000000     0.650300000000     0.364500000000     0.0471417  
H100     H      0.082470000000     0.753370000000     0.404230000000     0.0460726  
H101     H      0.643360000000     0.551890000000     0.195050000000     0.0474051  
H102     H      0.756910000000     0.664300000000     0.194690000000     0.0482957  
H103     H      0.726270000000     0.735520000000     0.181060000000     0.0467217  
H104     H      0.573080000000     0.582160000000     0.180480000000     0.0464096  
H105     H      0.558870000000     0.639160000000     0.120670000000     0.0457199  
H106     H      0.654100000000     0.765200000000     0.167220000000     0.0482648  
H107     H      0.629790000000     0.567600000000     0.240430000000     0.0457755  
H108     H      0.741410000000     0.677880000000     0.240170000000     0.046097   
H109     H      0.669040000000     0.750920000000     0.121790000000     0.046104   
H110     H      0.541900000000     0.651620000000     0.165970000000     0.0472581  
H111     H      0.807270000000     0.409480000000     0.003760000000     0.0460691  
H112     H      0.811220000000     0.323670000000     0.066830000000     0.0456265  
H113     H      0.778080000000     0.341990000000     0.141900000000     0.046451   
H114     H      0.777850000000     0.462980000000     0.055410000000     0.046395   
H115     H      0.811500000000     0.514490000000     0.130110000000     0.0456561  
H116     H      0.744000000000     0.393100000000     0.191760000000     0.0476524  
H117     H      0.743390000000     0.377720000000     0.006000000000     0.0475822  
H118     H      0.747370000000     0.290630000000     0.069190000000     0.0453505  
H119     H      0.807880000000     0.424920000000     0.193160000000     0.0462057  
H120     H      0.747640000000     0.484060000000     0.128540000000     0.0452904  
In1      In     0.766290000000     0.535470000000     0.265090000000     2.39512    
In2      In     0.525550000000     0.774350000000     0.095720000000     2.39605    
In3      In     0.766140000000     0.257540000000     0.932480000000     2.39572    
In4      In     0.248840000000     0.496360000000     0.763420000000     2.39474    
In5      In     0.489990000000     0.254350000000     0.598400000000     2.39837    
In6      In     0.248590000000     0.774920000000     0.430920000000     2.39483    
N1       N      0.420680000000     0.121530000000     0.557500000000    -0.164745   
N2       N      0.311460000000     0.908370000000     0.470530000000    -0.165126   
N3       N      0.311160000000     0.424420000000     0.724430000000    -0.165168   
N4       N      0.420630000000     0.318430000000     0.639310000000    -0.164818   
N5       N      0.243350000000     0.569270000000     0.672930000000    -0.167034   
N6       N      0.242200000000     0.695690000000     0.521140000000    -0.167174   
N7       N      0.900130000000     0.321330000000     0.891740000000    -0.164873   
N8       N      0.114530000000     0.425900000000     0.803570000000    -0.165336   
N9       N      0.558360000000     0.240950000000     0.688710000000    -0.167259   
N10      N      0.685270000000     0.244850000000     0.841740000000    -0.167143   
N11      N      0.454750000000     0.783930000000     0.186550000000    -0.167038   
N12      N      0.328230000000     0.783690000000     0.339740000000    -0.166818   
N13      N      0.595400000000     0.907780000000     0.055370000000    -0.165066   
N14      N      0.702610000000     0.123940000000     0.972300000000    -0.164721   
N15      N      0.327980000000     0.567980000000     0.853760000000    -0.16687    
N16      N      0.454740000000     0.694090000000     0.005580000000    -0.167098   
N17      N      0.685060000000     0.465480000000     0.355810000000    -0.167123   
N18      N      0.559570000000     0.336950000000     0.508300000000    -0.167291   
N19      N      0.114530000000     0.712080000000     0.391410000000    -0.16527    
N20      N      0.899950000000     0.605020000000     0.305390000000    -0.164915   
N21      N      0.595880000000     0.711460000000     0.136570000000    -0.165128   
N22      N      0.702710000000     0.605380000000     0.224840000000    -0.164849   
N23      N      0.776720000000     0.465130000000     0.174710000000    -0.167335   
N24      N      0.776240000000     0.338320000000     0.022650000000    -0.167416   
O1       O      0.775980000000     0.528200000000     0.201860000000    -0.507364   
O2       O      0.767870000000     0.472900000000     0.238130000000    -0.49339    
O3       O      0.832690000000     0.603010000000     0.283700000000    -0.48273    
O4       O      0.768140000000     0.602970000000     0.245520000000    -0.482257   
O5       O      0.701510000000     0.473300000000     0.292320000000    -0.492801   
O6       O      0.701690000000     0.539050000000     0.246320000000    -0.501623   
O7       O      0.833870000000     0.538570000000     0.284970000000    -0.502067   
O8       O      0.749470000000     0.528280000000     0.328370000000    -0.506607   
O9       O      0.518510000000     0.757400000000     0.032590000000    -0.507056   
O10      O      0.462300000000     0.710770000000     0.068900000000    -0.493058   
O11      O      0.593180000000     0.776510000000     0.115960000000    -0.483834   
O12      O      0.592840000000     0.839600000000     0.074550000000    -0.483596   
O13      O      0.518380000000     0.783870000000     0.158930000000    -0.506609   
O14      O      0.529170000000     0.842700000000     0.078000000000    -0.502419   
O15      O      0.529390000000     0.710060000000     0.114450000000    -0.502768   
O16      O      0.462380000000     0.775160000000     0.123100000000    -0.491845   
O17      O      0.701310000000     0.254490000000     0.905150000000    -0.492981   
O18      O      0.749850000000     0.247300000000     0.869320000000    -0.507017   
O19      O      0.767810000000     0.191400000000     0.950750000000    -0.481579   
O20      O      0.833620000000     0.256920000000     0.915520000000    -0.482467   
O21      O      0.767400000000     0.321620000000     0.959310000000    -0.494272   
O22      O      0.833010000000     0.321450000000     0.910620000000    -0.501358   
O23      O      0.701720000000     0.189940000000     0.952520000000    -0.501113   
O24      O      0.775680000000     0.274570000000     0.995590000000    -0.508012   
O25      O      0.263770000000     0.505080000000     0.826810000000    -0.505719   
O26      O      0.313160000000     0.558920000000     0.790170000000    -0.491378   
O27      O      0.245490000000     0.429770000000     0.739690000000    -0.484408   
O28      O      0.184380000000     0.429750000000     0.786410000000    -0.485531   
O29      O      0.248940000000     0.559780000000     0.736510000000    -0.492536   
O30      O      0.178650000000     0.491200000000     0.778730000000    -0.503025   
O31      O      0.313360000000     0.489680000000     0.749780000000    -0.502802   
O32      O      0.242920000000     0.505550000000     0.699980000000    -0.505905   
O33      O      0.495400000000     0.241920000000     0.661270000000    -0.507781   
O34      O      0.552320000000     0.252060000000     0.625470000000    -0.494023   
O35      O      0.421950000000     0.186640000000     0.582870000000    -0.482693   
O36      O      0.421860000000     0.254630000000     0.613760000000    -0.482417   
O37      O      0.552790000000     0.318860000000     0.571430000000    -0.494033   
O38      O      0.487900000000     0.317580000000     0.622180000000    -0.501988   
O39      O      0.487910000000     0.188900000000     0.574880000000    -0.501736   
O40      O      0.496400000000     0.272770000000     0.535550000000    -0.50789    
O41      O      0.241400000000     0.758850000000     0.494250000000    -0.506979   
O42      O      0.248750000000     0.711480000000     0.457600000000    -0.492709   
O43      O      0.183630000000     0.777410000000     0.409750000000    -0.484804   
O44      O      0.245640000000     0.838450000000     0.454510000000    -0.483756   
O45      O      0.312890000000     0.776570000000     0.403410000000    -0.491365   
O46      O      0.313360000000     0.845140000000     0.445160000000    -0.50226    
O47      O      0.179170000000     0.710460000000     0.414360000000    -0.503053   
O48      O      0.264080000000     0.782650000000     0.367460000000    -0.505643   


