data_structure

_audit_creation_method RASPA-1.0
_audit_creation_date 2023-6-5
_audit_author_name 'Poobodin Mano'

_cell_length_a    26.0871
_cell_length_b    25.3069
_cell_length_c    27.222
_cell_angle_alpha 89.4845
_cell_angle_beta  90.5155
_cell_angle_gamma 89.9987
_cell_volume      17970.1

_symmetry_cell_setting          triclinic
_symmetry_space_group_name_Hall 'P 1'
_symmetry_space_group_name_H-M  'P 1'
_symmetry_Int_Tables_number     1

_symmetry_equiv_pos_as_xyz 'x,y,z'

loop_
_atom_site_label
_atom_site_type_symbol
_atom_site_fract_x
_atom_site_fract_y
_atom_site_fract_z
_atom_site_charge
C1       C      0.356910000000     0.494930000000     0.029310000000     0.420675   
C2       C      0.325830000000     0.349560000000     0.427360000000     0.420984   
C3       C      0.466630000000     0.382980000000     0.514980000000     0.417358   
C4       C      0.316460000000     0.329300000000     0.077850000000     0.416717   
C5       C      0.362770000000     0.637640000000     0.509350000000     0.419297   
C6       C      0.330710000000     0.796170000000     0.100070000000     0.419228   
C7       C      0.474090000000     0.753300000000     0.024990000000     0.415833   
C8       C      0.309620000000     0.785820000000     0.454900000000     0.418896   
C9       C      0.595750000000     0.354000000000     0.059060000000     0.42262    
C10      C      0.737040000000     0.292260000000     0.489990000000     0.420307   
C11      C      0.718000000000     0.454310000000     0.557660000000     0.423003   
C12      C      0.734650000000     0.300690000000     0.144420000000     0.423879   
C13      C      0.700280000000     0.595780000000     0.074740000000     0.428222   
C14      C      0.748240000000     0.734500000000     0.477210000000     0.415807   
C15      C      0.606250000000     0.736780000000     0.565250000000     0.415414   
C16      C      0.764470000000     0.740200000000     0.134550000000     0.422882   
C17      C      0.853850000000     0.101100000000     0.299380000000     0.423915   
C18      C      0.827490000000     0.244290000000     0.399820000000     0.420672   
C19      C      0.967310000000     0.211740000000     0.311840000000     0.419469   
C20      C      0.815980000000     0.266070000000     0.249000000000     0.421661   
C21      C      0.969120000000     0.848770000000     0.295980000000     0.419587   
C22      C      0.834980000000     0.800490000000     0.392080000000     0.426621   
C23      C      0.845730000000     0.959890000000     0.322110000000     0.427399   
C24      C      0.813890000000     0.824220000000     0.232540000000     0.415923   
C25      C      0.105240000000     0.883160000000     0.297800000000     0.419173   
C26      C      0.246210000000     0.834840000000     0.200020000000     0.419505   
C27      C      0.205240000000     0.997050000000     0.249270000000     0.419624   
C28      C      0.264830000000     0.861300000000     0.348350000000     0.421869   
C29      C      0.095320000000     0.237780000000     0.265510000000     0.422078   
C30      C      0.236450000000     0.302950000000     0.333620000000     0.420214   
C31      C      0.218760000000     0.139080000000     0.265590000000     0.422847   
C32      C      0.233380000000     0.292480000000     0.179250000000     0.422349   
C33      C      0.356890000000     0.494920000000     0.529320000000     0.421718   
C34      C      0.325840000000     0.349570000000     0.927360000000     0.420937   
C35      C      0.466650000000     0.382980000000     0.014990000000     0.4162     
C36      C      0.316440000000     0.329300000000     0.577850000000     0.416725   
C37      C      0.362800000000     0.637640000000     0.009340000000     0.418025   
C38      C      0.330690000000     0.796170000000     0.600090000000     0.419215   
C39      C      0.474070000000     0.753290000000     0.525010000000     0.416886   
C40      C      0.309630000000     0.785820000000     0.954880000000     0.41887    
C41      C      0.595730000000     0.353990000000     0.559030000000     0.422665   
C42      C      0.737040000000     0.292280000000     0.990000000000     0.421318   
C43      C      0.718020000000     0.454320000000     0.057690000000     0.423222   
C44      C      0.734630000000     0.300700000000     0.644400000000     0.423849   
C45      C      0.700260000000     0.595770000000     0.574730000000     0.428012   
C46      C      0.748260000000     0.734500000000     0.977210000000     0.417061   
C47      C      0.606270000000     0.736790000000     0.065240000000     0.415332   
C48      C      0.764440000000     0.740210000000     0.634560000000     0.422856   
C49      C      0.853840000000     0.101140000000     0.799360000000     0.42397    
C50      C      0.827480000000     0.244320000000     0.899820000000     0.420532   
C51      C      0.967290000000     0.211770000000     0.811840000000     0.419513   
C52      C      0.815960000000     0.266100000000     0.748990000000     0.421814   
C53      C      0.969090000000     0.848800000000     0.795970000000     0.419722   
C54      C      0.834960000000     0.800540000000     0.892070000000     0.426712   
C55      C      0.845690000000     0.959930000000     0.822080000000     0.427163   
C56      C      0.813860000000     0.824250000000     0.732530000000     0.416115   
C57      C      0.105220000000     0.883170000000     0.797810000000     0.419282   
C58      C      0.246180000000     0.834850000000     0.700030000000     0.419408   
C59      C      0.205210000000     0.997070000000     0.749280000000     0.419921   
C60      C      0.264810000000     0.861320000000     0.848350000000     0.42198    
C61      C      0.095300000000     0.237820000000     0.765520000000     0.422205   
C62      C      0.236450000000     0.302960000000     0.833630000000     0.420187   
C63      C      0.218730000000     0.139090000000     0.765600000000     0.422587   
C64      C      0.233370000000     0.292500000000     0.679260000000     0.422542   
H1       H      0.186770000000     0.062160000000     0.205920000000     0.127083   
H2       H      0.249050000000     0.073430000000     0.300650000000     0.131008   
H3       H      0.044060000000     0.898670000000     0.343040000000     0.128228   
H4       H      0.032410000000     0.822220000000     0.257870000000     0.127686   
H5       H      0.860380000000     0.035340000000     0.255690000000     0.12986    
H6       H      0.819620000000     0.025210000000     0.359830000000     0.127847   
H7       H      0.040440000000     0.200360000000     0.339640000000     0.129719   
H8       H      0.022270000000     0.246470000000     0.236870000000     0.131215   
H9       H      0.842160000000     0.773930000000     0.463990000000     0.126573   
H10      H      0.749830000000     0.743140000000     0.401600000000     0.127358   
H11      H      0.760950000000     0.834930000000     0.176280000000     0.128848   
H12      H      0.821540000000     0.732320000000     0.187140000000     0.130377   
H13      H      0.834410000000     0.286400000000     0.464060000000     0.130233   
H14      H      0.731230000000     0.241300000000     0.431240000000     0.128833   
H15      H      0.738230000000     0.237250000000     0.192340000000     0.130526   
H16      H      0.805320000000     0.334570000000     0.208080000000     0.12857    
H17      H      0.674670000000     0.528850000000     0.110560000000     0.128559   
H18      H      0.748610000000     0.521050000000     0.524620000000     0.127603   
H19      H      0.240650000000     0.792070000000     0.417700000000     0.129431   
H20      H      0.331360000000     0.862170000000     0.390320000000     0.130149   
H21      H      0.321170000000     0.863870000000     0.140630000000     0.12856    
H22      H      0.255810000000     0.766060000000     0.160430000000     0.128322   
H23      H      0.543850000000     0.764950000000     0.490930000000     0.12786    
H24      H      0.538940000000     0.753250000000     0.101810000000     0.127101   
H25      H      0.332240000000     0.303160000000     0.365910000000     0.130633   
H26      H      0.230950000000     0.356790000000     0.390210000000     0.127827   
H27      H      0.310180000000     0.262810000000     0.122080000000     0.128729   
H28      H      0.233750000000     0.353730000000     0.128690000000     0.130279   
H29      H      0.523520000000     0.344900000000     0.088360000000     0.131348   
H30      H      0.538890000000     0.392450000000     0.485980000000     0.129784   
H31      H      0.357680000000     0.559520000000     0.075390000000     0.128124   
H32      H      0.357420000000     0.572990000000     0.463950000000     0.128656   
H33      H      0.186750000000     0.062170000000     0.705930000000     0.127188   
H34      H      0.249020000000     0.073450000000     0.800670000000     0.131028   
H35      H      0.044030000000     0.898670000000     0.843060000000     0.128234   
H36      H      0.032380000000     0.822260000000     0.757850000000     0.127741   
H37      H      0.860390000000     0.035380000000     0.755670000000     0.129923   
H38      H      0.819530000000     0.025250000000     0.859780000000     0.127907   
H39      H      0.040410000000     0.200380000000     0.839640000000     0.129836   
H40      H      0.022250000000     0.246520000000     0.736880000000     0.131261   
H41      H      0.842140000000     0.774040000000     0.964000000000     0.126825   
H42      H      0.749880000000     0.743090000000     0.901600000000     0.127452   
H43      H      0.760920000000     0.834950000000     0.676270000000     0.128898   
H44      H      0.821520000000     0.732340000000     0.687150000000     0.130391   
H45      H      0.834410000000     0.286430000000     0.964050000000     0.130496   
H46      H      0.731230000000     0.241320000000     0.931260000000     0.128956   
H47      H      0.738210000000     0.237270000000     0.692330000000     0.13062    
H48      H      0.805300000000     0.334590000000     0.708060000000     0.128621   
H49      H      0.674660000000     0.528830000000     0.610550000000     0.128618   
H50      H      0.748640000000     0.521050000000     0.024660000000     0.127499   
H51      H      0.240650000000     0.792060000000     0.917690000000     0.129514   
H52      H      0.331350000000     0.862190000000     0.890320000000     0.130203   
H53      H      0.321150000000     0.863880000000     0.640650000000     0.12861    
H54      H      0.255790000000     0.766070000000     0.660450000000     0.128404   
H55      H      0.543870000000     0.764960000000     0.990910000000     0.128471   
H56      H      0.538920000000     0.753230000000     0.601830000000     0.127148   
H57      H      0.332250000000     0.303170000000     0.865910000000     0.130651   
H58      H      0.230950000000     0.356800000000     0.890220000000     0.127927   
H59      H      0.310170000000     0.262810000000     0.622080000000     0.128779   
H60      H      0.233740000000     0.353740000000     0.628700000000     0.130392   
H61      H      0.523500000000     0.344870000000     0.588330000000     0.131379   
H62      H      0.538920000000     0.392430000000     0.985980000000     0.130347   
H63      H      0.357670000000     0.559510000000     0.575400000000     0.128169   
H64      H      0.357460000000     0.572990000000     0.963930000000     0.129125   
In1      In     0.364210000000     0.390400000000     0.511230000000     2.42226    
In2      In     0.370840000000     0.742610000000     0.524200000000     2.41332    
In3      In     0.698210000000     0.349970000000     0.563350000000     2.43435    
In4      In     0.704550000000     0.701840000000     0.562170000000     2.38596    
In5      In     0.864910000000     0.205230000000     0.315900000000     2.43613    
In6      In     0.866800000000     0.856390000000     0.312360000000     2.38962    
In7      In     0.204860000000     0.893290000000     0.272510000000     2.40495    
In8      In     0.197650000000     0.243420000000     0.260310000000     2.42142    
In9      In     0.364230000000     0.390400000000     0.011230000000     2.41963    
In10     In     0.370860000000     0.742620000000     0.024180000000     2.41067    
In11     In     0.698230000000     0.349980000000     0.063380000000     2.43381    
In12     In     0.704570000000     0.701850000000     0.062170000000     2.38554    
In13     In     0.864890000000     0.205270000000     0.815890000000     2.43606    
In14     In     0.866770000000     0.856430000000     0.812340000000     2.38985    
In15     In     0.204830000000     0.893310000000     0.772520000000     2.40498    
In16     In     0.197640000000     0.243440000000     0.760320000000     2.42158    
N1       N      0.204950000000     0.049430000000     0.238320000000    -0.173254   
N2       N      0.227200000000     0.086470000000     0.270500000000    -0.174514   
N3       N      0.055590000000     0.878500000000     0.311640000000    -0.173736   
N4       N      0.019950000000     0.847100000000     0.285810000000    -0.174547   
N5       N      0.850570000000     0.048680000000     0.290640000000    -0.17442    
N6       N      0.836560000000     0.012160000000     0.327440000000    -0.174235   
N7       N      0.018960000000     0.214540000000     0.309680000000    -0.172934   
N8       N      0.043690000000     0.234610000000     0.267710000000    -0.173375   
N9       N      0.818190000000     0.775100000000     0.432980000000    -0.175706   
N10      N      0.769700000000     0.750520000000     0.434380000000    -0.173172   
N11      N      0.787200000000     0.808540000000     0.192280000000    -0.172074   
N12      N      0.793910000000     0.757910000000     0.172220000000    -0.173315   
N13      N      0.808910000000     0.265930000000     0.441250000000    -0.174448   
N14      N      0.756400000000     0.263860000000     0.452600000000    -0.17427    
N15      N      0.753040000000     0.274770000000     0.184490000000    -0.174892   
N16      N      0.792470000000     0.295910000000     0.214010000000    -0.174127   
N17      N      0.698110000000     0.542920000000     0.082340000000    -0.176339   
N18      N      0.724940000000     0.507110000000     0.552710000000    -0.174601   
N19      N      0.278270000000     0.806260000000     0.419740000000    -0.173221   
N20      N      0.295060000000     0.845130000000     0.386240000000    -0.174689   
N21      N      0.308750000000     0.824920000000     0.136030000000    -0.174308   
N22      N      0.268650000000     0.804850000000     0.165180000000    -0.174682   
N23      N      0.525970000000     0.757070000000     0.024410000000    -0.174413   
N24      N      0.555900000000     0.749920000000     0.567340000000    -0.173766   
N25      N      0.307320000000     0.326900000000     0.385980000000    -0.17493    
N26      N      0.255660000000     0.331860000000     0.371180000000    -0.174465   
N27      N      0.293900000000     0.299430000000     0.113020000000    -0.17328    
N28      N      0.251320000000     0.318150000000     0.139110000000    -0.174828   
N29      N      0.544080000000     0.357400000000     0.057550000000    -0.173562   
N30      N      0.518250000000     0.378820000000     0.516320000000    -0.172767   
N31      N      0.356520000000     0.547420000000     0.038760000000    -0.175088   
N32      N      0.358240000000     0.585220000000     0.500550000000    -0.174423   
N33      N      0.204920000000     0.049440000000     0.738330000000    -0.173364   
N34      N      0.227170000000     0.086480000000     0.770510000000    -0.174414   
N35      N      0.055560000000     0.878510000000     0.811640000000    -0.173642   
N36      N      0.019920000000     0.847130000000     0.785800000000    -0.174544   
N37      N      0.850550000000     0.048720000000     0.790610000000    -0.174416   
N38      N      0.836500000000     0.012200000000     0.827400000000    -0.174141   
N39      N      0.018940000000     0.214570000000     0.809690000000    -0.172968   
N40      N      0.043680000000     0.234650000000     0.767720000000    -0.1734     
N41      N      0.818180000000     0.775160000000     0.932990000000    -0.175623   
N42      N      0.769730000000     0.750510000000     0.934380000000    -0.173303   
N43      N      0.787170000000     0.808560000000     0.692280000000    -0.172099   
N44      N      0.793880000000     0.757930000000     0.672220000000    -0.173259   
N45      N      0.808910000000     0.265960000000     0.941250000000    -0.174389   
N46      N      0.756400000000     0.263880000000     0.952620000000    -0.174394   
N47      N      0.753020000000     0.274780000000     0.684470000000    -0.17489    
N48      N      0.792450000000     0.295930000000     0.713990000000    -0.174124   
N49      N      0.698090000000     0.542910000000     0.582330000000    -0.176285   
N50      N      0.724970000000     0.507120000000     0.052740000000    -0.174712   
N51      N      0.278270000000     0.806260000000     0.919730000000    -0.173162   
N52      N      0.295050000000     0.845140000000     0.886240000000    -0.174615   
N53      N      0.308730000000     0.824920000000     0.636040000000    -0.174264   
N54      N      0.268620000000     0.804860000000     0.665190000000    -0.174658   
N55      N      0.525950000000     0.757060000000     0.524430000000    -0.174086   
N56      N      0.555920000000     0.749940000000     0.067320000000    -0.173802   
N57      N      0.307320000000     0.326910000000     0.885980000000    -0.174831   
N58      N      0.255660000000     0.331870000000     0.871190000000    -0.17443    
N59      N      0.293880000000     0.299430000000     0.613030000000    -0.173193   
N60      N      0.251300000000     0.318160000000     0.639120000000    -0.174904   
N61      N      0.544060000000     0.357380000000     0.557520000000    -0.173496   
N62      N      0.518270000000     0.378820000000     0.016340000000    -0.173002   
N63      N      0.356500000000     0.547420000000     0.538770000000    -0.175123   
N64      N      0.358270000000     0.585230000000     0.000540000000    -0.174742   
O1       O      0.299620000000     0.374160000000     0.065020000000    -0.489987   
O2       O      0.356790000000     0.314670000000     0.056720000000    -0.484885   
O3       O      0.299350000000     0.379060000000     0.454380000000    -0.490114   
O4       O      0.355250000000     0.476670000000     0.486340000000    -0.493359   
O5       O      0.438700000000     0.367150000000     0.049720000000    -0.482886   
O6       O      0.360670000000     0.460860000000     0.063120000000    -0.493858   
O7       O      0.370990000000     0.341370000000     0.442040000000    -0.495785   
O8       O      0.443280000000     0.402850000000     0.478550000000    -0.489438   
O9       O      0.294260000000     0.750950000000     0.484630000000    -0.495729   
O10      O      0.355960000000     0.799470000000     0.459840000000    -0.477023   
O11      O      0.318930000000     0.748700000000     0.091600000000    -0.481694   
O12      O      0.363660000000     0.656850000000     0.052040000000    -0.482781   
O13      O      0.447120000000     0.761180000000     0.486950000000    -0.484693   
O14      O      0.366480000000     0.670740000000     0.474800000000    -0.498247   
O15      O      0.363670000000     0.815920000000     0.071740000000    -0.500227   
O16      O      0.449430000000     0.740270000000     0.062910000000    -0.491502   
O17      O      0.701090000000     0.280520000000     0.116900000000    -0.496601   
O18      O      0.750200000000     0.345890000000     0.131530000000    -0.495581   
O19      O      0.689880000000     0.292410000000     0.499560000000    -0.490769   
O20      O      0.623390000000     0.367750000000     0.523320000000    -0.493047   
O21      O      0.690120000000     0.434400000000     0.090580000000    -0.497825   
O22      O      0.619450000000     0.337510000000     0.096750000000    -0.488863   
O23      O      0.764620000000     0.320990000000     0.517060000000    -0.493981   
O24      O      0.737500000000     0.421790000000     0.528420000000    -0.490328   
O25      O      0.769570000000     0.694130000000     0.118000000000    -0.494468   
O26      O      0.729800000000     0.767880000000     0.114140000000    -0.479868   
O27      O      0.706890000000     0.708750000000     0.478250000000    -0.476568   
O28      O      0.727450000000     0.616990000000     0.542030000000    -0.489014   
O29      O      0.628960000000     0.728240000000     0.025430000000    -0.47935    
O30      O      0.674990000000     0.627360000000     0.100330000000    -0.498065   
O31      O      0.767650000000     0.744520000000     0.518700000000    -0.484542   
O32      O      0.633140000000     0.729590000000     0.603390000000    -0.478819   
O33      O      0.803270000000     0.218850000000     0.257680000000    -0.495801   
O34      O      0.853020000000     0.283250000000     0.274280000000    -0.489302   
O35      O      0.873810000000     0.249180000000     0.388050000000    -0.494005   
O36      O      0.844570000000     0.121020000000     0.340690000000    -0.491883   
O37      O      0.938580000000     0.228760000000     0.277690000000    -0.488771   
O38      O      0.868040000000     0.133230000000     0.266680000000    -0.499944   
O39      O      0.799770000000     0.219160000000     0.369850000000    -0.494412   
O40      O      0.944710000000     0.191640000000     0.348250000000    -0.490685   
O41      O      0.845900000000     0.794770000000     0.254630000000    -0.475931   
O42      O      0.808160000000     0.869540000000     0.250610000000    -0.483924   
O43      O      0.878850000000     0.821090000000     0.389770000000    -0.493609   
O44      O      0.936700000000     0.820970000000     0.273400000000    -0.482924   
O45      O      0.833270000000     0.926260000000     0.354290000000    -0.491905   
O46      O      0.950580000000     0.879210000000     0.327570000000    -0.486309   
O47      O      0.807460000000     0.806810000000     0.354260000000    -0.490766   
O48      O      0.868250000000     0.941610000000     0.285150000000    -0.486437   
O49      O      0.221140000000     0.841900000000     0.340170000000    -0.49384    
O50      O      0.278660000000     0.896720000000     0.318550000000    -0.483974   
O51      O      0.211070000000     0.817340000000     0.227170000000    -0.486493   
O52      O      0.122870000000     0.862160000000     0.259540000000    -0.47867    
O53      O      0.225110000000     0.978910000000     0.288310000000    -0.484183   
O54      O      0.137170000000     0.909340000000     0.322660000000    -0.494455   
O55      O      0.259460000000     0.881820000000     0.208220000000    -0.492562   
O56      O      0.184860000000     0.963140000000     0.221480000000    -0.49177    
O57      O      0.197040000000     0.310670000000     0.204040000000    -0.492484   
O58      O      0.252080000000     0.249510000000     0.194920000000    -0.494632   
O59      O      0.189840000000     0.304800000000     0.321260000000    -0.48807    
O60      O      0.124100000000     0.225190000000     0.301250000000    -0.492112   
O61      O      0.192350000000     0.158850000000     0.231010000000    -0.490486   
O62      O      0.117820000000     0.253420000000     0.227250000000    -0.487805   
O63      O      0.263550000000     0.271600000000     0.309200000000    -0.490274   
O64      O      0.235480000000     0.171590000000     0.296650000000    -0.491491   
O65      O      0.299600000000     0.374160000000     0.565020000000    -0.490063   
O66      O      0.356770000000     0.314670000000     0.556720000000    -0.484919   
O67      O      0.299370000000     0.379070000000     0.954380000000    -0.489543   
O68      O      0.355280000000     0.476670000000     0.986330000000    -0.492127   
O69      O      0.438680000000     0.367130000000     0.549710000000    -0.483231   
O70      O      0.360670000000     0.460850000000     0.563130000000    -0.494261   
O71      O      0.371000000000     0.341370000000     0.942040000000    -0.495199   
O72      O      0.443300000000     0.402830000000     0.978540000000    -0.488151   
O73      O      0.294270000000     0.750940000000     0.984600000000    -0.494951   
O74      O      0.355960000000     0.799480000000     0.959820000000    -0.476549   
O75      O      0.318910000000     0.748700000000     0.591620000000    -0.481791   
O76      O      0.363650000000     0.656840000000     0.552050000000    -0.48328    
O77      O      0.447140000000     0.761180000000     0.986930000000    -0.483545   
O78      O      0.366520000000     0.670740000000     0.974780000000    -0.496916   
O79      O      0.363660000000     0.815920000000     0.571760000000    -0.500124   
O80      O      0.449420000000     0.740260000000     0.562930000000    -0.491858   
O81      O      0.701070000000     0.280520000000     0.616880000000    -0.496473   
O82      O      0.750190000000     0.345890000000     0.631500000000    -0.495528   
O83      O      0.689890000000     0.292410000000     0.999590000000    -0.490408   
O84      O      0.623410000000     0.367750000000     0.023340000000    -0.493248   
O85      O      0.690110000000     0.434390000000     0.590560000000    -0.497757   
O86      O      0.619430000000     0.337480000000     0.596720000000    -0.488773   
O87      O      0.764630000000     0.321010000000     0.017070000000    -0.494776   
O88      O      0.737530000000     0.421800000000     0.028470000000    -0.49064    
O89      O      0.769550000000     0.694130000000     0.618010000000    -0.494287   
O90      O      0.729780000000     0.767880000000     0.614130000000    -0.479866   
O91      O      0.706940000000     0.708700000000     0.978250000000    -0.476364   
O92      O      0.727480000000     0.616990000000     0.042050000000    -0.489196   
O93      O      0.628930000000     0.728230000000     0.525440000000    -0.479026   
O94      O      0.674980000000     0.627350000000     0.600340000000    -0.497925   
O95      O      0.767630000000     0.744580000000     0.018690000000    -0.485555   
O96      O      0.633160000000     0.729610000000     0.103380000000    -0.478836   
O97      O      0.803250000000     0.218880000000     0.757670000000    -0.495802   
O98      O      0.852990000000     0.283280000000     0.774270000000    -0.489414   
O99      O      0.873800000000     0.249220000000     0.888040000000    -0.493838   
O100     O      0.844520000000     0.121060000000     0.840660000000    -0.491813   
O101     O      0.938570000000     0.228810000000     0.777690000000    -0.488658   
O102     O      0.868050000000     0.133270000000     0.766670000000    -0.499895   
O103     O      0.799750000000     0.219190000000     0.869850000000    -0.494205   
O104     O      0.944690000000     0.191660000000     0.848240000000    -0.490631   
O105     O      0.845870000000     0.794810000000     0.754630000000    -0.476065   
O106     O      0.808130000000     0.869570000000     0.750600000000    -0.484019   
O107     O      0.878810000000     0.821190000000     0.889780000000    -0.493465   
O108     O      0.936670000000     0.821020000000     0.773380000000    -0.482988   
O109     O      0.833190000000     0.926300000000     0.854250000000    -0.491656   
O110     O      0.950550000000     0.879230000000     0.827570000000    -0.486306   
O111     O      0.807460000000     0.806810000000     0.854240000000    -0.490791   
O112     O      0.868240000000     0.941650000000     0.785130000000    -0.486332   
O113     O      0.221130000000     0.841910000000     0.840170000000    -0.493848   
O114     O      0.278640000000     0.896740000000     0.818560000000    -0.483908   
O115     O      0.211040000000     0.817350000000     0.727180000000    -0.486354   
O116     O      0.122840000000     0.862190000000     0.759540000000    -0.478683   
O117     O      0.225080000000     0.978920000000     0.788320000000    -0.484272   
O118     O      0.137150000000     0.909340000000     0.822670000000    -0.494565   
O119     O      0.259440000000     0.881830000000     0.708220000000    -0.49233    
O120     O      0.184850000000     0.963160000000     0.721490000000    -0.491873   
O121     O      0.197030000000     0.310680000000     0.704050000000    -0.492571   
O122     O      0.252060000000     0.249520000000     0.694930000000    -0.494659   
O123     O      0.189840000000     0.304810000000     0.821280000000    -0.488036   
O124     O      0.124080000000     0.225210000000     0.801260000000    -0.491981   
O125     O      0.192330000000     0.158870000000     0.731020000000    -0.490376   
O126     O      0.117810000000     0.253460000000     0.727270000000    -0.487819   
O127     O      0.263550000000     0.271610000000     0.809200000000    -0.490213   
O128     O      0.235460000000     0.171610000000     0.796670000000    -0.491252   


