data_structure

_audit_creation_method RASPA-1.0
_audit_creation_date 2023-5-22
_audit_author_name 'Poobodin Mano'

_cell_length_a    18.5544
_cell_length_b    29.0133
_cell_length_c    28.2912
_cell_angle_alpha 90
_cell_angle_beta  90
_cell_angle_gamma 90
_cell_volume      15229.8

_symmetry_cell_setting          triclinic
_symmetry_space_group_name_Hall 'P 1'
_symmetry_space_group_name_H-M  'P 1'
_symmetry_Int_Tables_number     1

_symmetry_equiv_pos_as_xyz 'x,y,z'

loop_
_atom_site_label
_atom_site_type_symbol
_atom_site_fract_x
_atom_site_fract_y
_atom_site_fract_z
_atom_site_charge
C1       C      0.031990000000     0.311030000000     0.918720000000     0.417719   
C2       C      0.185990000000     0.433970000000     0.907310000000     0.422947   
C3       C      0.179390000000     0.310630000000     0.809400000000     0.419056   
C4       C      0.018640000000     0.424880000000     0.809320000000     0.415082   
C5       C      0.318410000000     0.549170000000     0.068450000000     0.416596   
C6       C      0.495100000000     0.656610000000     0.060610000000     0.41577    
C7       C      0.366430000000     0.662420000000     0.177100000000     0.417846   
C8       C      0.489750000000     0.529520000000     0.157020000000     0.417072   
C9       C      0.568510000000     0.799910000000     0.906770000000     0.416445   
C10      C      0.735350000000     0.906540000000     0.898840000000     0.417569   
C11      C      0.706500000000     0.779580000000     0.797540000000     0.418986   
C12      C      0.594570000000     0.910380000000     0.784760000000     0.416511   
C13      C      0.990040000000     0.029950000000     0.167280000000     0.416254   
C14      C      0.980130000000     0.147190000000     0.053850000000     0.416557   
C15      C      0.829840000000     0.034450000000     0.061520000000     0.419592   
C16      C      0.850000000000     0.147330000000     0.178190000000     0.418218   
C17      C      0.466800000000     0.385730000000     0.286330000000     0.418958   
C18      C      0.607870000000     0.260150000000     0.272090000000     0.41511    
C19      C      0.630260000000     0.374520000000     0.382180000000     0.414851   
C20      C      0.469820000000     0.259060000000     0.385700000000     0.417827   
C21      C      0.895360000000     0.524120000000     0.634350000000     0.416572   
C22      C      0.735690000000     0.633450000000     0.641300000000     0.416829   
C23      C      0.846000000000     0.635540000000     0.517480000000     0.418193   
C24      C      0.726860000000     0.505790000000     0.540610000000     0.417926   
C25      C      0.148540000000     0.787210000000     0.279490000000     0.418267   
C26      C      0.167150000000     0.893730000000     0.406650000000     0.419892   
C27      C      0.001520000000     0.898320000000     0.312110000000     0.415345   
C28      C      0.047730000000     0.768090000000     0.409990000000     0.416027   
C29      C      0.372650000000     0.036220000000     0.686120000000     0.41664    
C30      C      0.238880000000     0.026270000000     0.570030000000     0.417629   
C31      C      0.242690000000     0.160680000000     0.661220000000     0.418462   
C32      C      0.394260000000     0.139590000000     0.558960000000     0.416511   
C33      C      0.176140000000     0.942590000000     0.477610000000    -0.00793187 
C34      C      0.232210000000     0.972250000000     0.503140000000    -0.00822415 
C35      C      0.951340000000     0.720000000000     0.444230000000    -0.00869878 
C36      C      0.942870000000     0.681320000000     0.480700000000    -0.00820444 
C37      C      0.463060000000     0.209480000000     0.456440000000    -0.00858244 
C38      C      0.405750000000     0.183230000000     0.484690000000    -0.0084275  
C39      C      0.653460000000     0.420060000000     0.453950000000    -0.00842781 
C40      C      0.711210000000     0.452280000000     0.473930000000    -0.00815486 
C41      C      0.981810000000     0.970870000000     0.267860000000    -0.00225291 
C42      C      0.999190000000     0.959240000000     0.216360000000    -0.00454563 
C43      C      0.715920000000     0.216720000000     0.247700000000    -0.00852615 
C44      C      0.742670000000     0.189860000000     0.204540000000    -0.00864006 
C45      C      0.494870000000     0.960320000000     0.758140000000    -0.00867339 
C46      C      0.474750000000     0.989750000000     0.715110000000    -0.00839797 
C47      C      0.743340000000     0.689100000000     0.706520000000    -0.00756901 
C48      C      0.693870000000     0.719430000000     0.736580000000    -0.00836888 
C49      C      0.812930000000     0.985150000000     0.991340000000    -0.00824375 
C50      C      0.752500000000     0.957890000000     0.967230000000    -0.00819566 
C51      C      0.252330000000     0.746890000000     0.244410000000    -0.00892218 
C52      C      0.267400000000     0.711910000000     0.205100000000    -0.00808226 
C53      C      0.502200000000     0.714560000000     0.996830000000    -0.00859525 
C54      C      0.558870000000     0.745470000000     0.973320000000    -0.00858737 
C55      C      0.506750000000     0.475140000000     0.223610000000    -0.00400268 
C56      C      0.449050000000     0.437820000000     0.217940000000    -0.00256505 
C57      C      0.184900000000     0.254390000000     0.744250000000    -0.00785208 
C58      C      0.240170000000     0.222890000000     0.720360000000    -0.00830698 
C59      C      0.978150000000     0.213900000000     0.999580000000    -0.00895276 
C60      C      0.032140000000     0.244930000000     0.973570000000    -0.00826798 
C61      C      0.988760000000     0.460220000000     0.732450000000    -0.00892924 
C62      C      0.927850000000     0.488580000000     0.710310000000    -0.00820179 
C63      C      0.219540000000     0.477000000000     0.979320000000    -0.00813565 
C64      C      0.277080000000     0.511600000000     0.995200000000    -0.00871059 
H1       H      0.258180000000     0.931340000000     0.423480000000     0.106903   
H2       H      0.148310000000     0.987340000000     0.555040000000     0.106593   
H3       H      0.128320000000     0.963940000000     0.468510000000     0.0467877  
H4       H      0.157360000000     0.914500000000     0.501360000000     0.0481609  
H5       H      0.253570000000     0.998910000000     0.478560000000     0.0489094  
H6       H      0.278480000000     0.950430000000     0.514260000000     0.0465713  
H7       H      0.066790000000     0.716180000000     0.458390000000     0.106026   
H8       H      0.828960000000     0.680030000000     0.461520000000     0.106551   
H9       H      0.918660000000     0.750370000000     0.455030000000     0.0499395  
H10      H      0.930720000000     0.708310000000     0.409310000000     0.0472098  
H11      H      0.962640000000     0.693250000000     0.515750000000     0.0491452  
H12      H      0.976370000000     0.651210000000     0.470220000000     0.0474818  
H13      H      0.379950000000     0.220490000000     0.403010000000     0.106484   
H14      H      0.489990000000     0.169060000000     0.536670000000     0.106062   
H15      H      0.507760000000     0.185750000000     0.446800000000     0.0453849  
H16      H      0.486430000000     0.237410000000     0.478610000000     0.0498163  
H17      H      0.383320000000     0.154790000000     0.462800000000     0.0478979  
H18      H      0.360350000000     0.206760000000     0.493460000000     0.0480211  
H19      H      0.724960000000     0.410440000000     0.393410000000     0.105942   
H20      H      0.642250000000     0.459600000000     0.536040000000     0.106589   
H21      H      0.601480000000     0.438900000000     0.450650000000     0.0487249  
H22      H      0.644480000000     0.390790000000     0.478660000000     0.0477544  
H23      H      0.722030000000     0.480590000000     0.448360000000     0.0496975  
H24      H      0.762470000000     0.433000000000     0.478850000000     0.0456633  
H25      H      0.900650000000     0.925430000000     0.297020000000     0.108138   
H26      H      0.085160000000     0.005540000000     0.196350000000     0.109258   
H27      H      0.939070000000     0.997730000000     0.268560000000     0.0421292  
H28      H      0.031000000000     0.984750000000     0.285320000000     0.0499943  
H29      H      0.949370000000     0.947330000000     0.198200000000     0.0522712  
H30      H      0.039650000000     0.931000000000     0.215640000000     0.0474509  
H31      H      0.610980000000     0.218590000000     0.212820000000     0.106411   
H32      H      0.847750000000     0.186530000000     0.239340000000     0.105085   
H33      H      0.750380000000     0.247620000000     0.253400000000     0.0506067  
H34      H      0.720320000000     0.194840000000     0.279840000000     0.0458996  
H35      H      0.738010000000     0.211750000000     0.172410000000     0.0486753  
H36      H      0.708040000000     0.159040000000     0.198880000000     0.0498259  
H37      H      0.598290000000     0.948870000000     0.723360000000     0.106148   
H38      H      0.371870000000     0.002140000000     0.750290000000     0.106277   
H39      H      0.454670000000     0.932240000000     0.762820000000     0.0497602  
H40      H      0.493550000000     0.981840000000     0.790660000000     0.0468054  
H41      H      0.477230000000     0.968380000000     0.682500000000     0.0476817  
H42      H      0.514340000000     0.018240000000     0.710850000000     0.0486594  
H43      H      0.646260000000     0.665610000000     0.670010000000     0.107039   
H44      H      0.788130000000     0.734250000000     0.780130000000     0.106931   
H45      H      0.773410000000     0.664770000000     0.729670000000     0.0478493  
H46      H      0.783920000000     0.710960000000     0.688210000000     0.0487101  
H47      H      0.652770000000     0.697630000000     0.754430000000     0.0448265  
H48      H      0.664720000000     0.744280000000     0.713520000000     0.0508671  
H49      H      0.734860000000     0.000210000000     0.046890000000     0.106705   
H50      H      0.832320000000     0.938290000000     0.914230000000     0.106706   
H51      H      0.833620000000     0.012160000000     0.966960000000     0.0470892  
H52      H      0.858690000000     0.961780000000     0.999750000000     0.0465993  
H53      H      0.707730000000     0.981550000000     0.957460000000     0.0463967  
H54      H      0.730160000000     0.931960000000     0.992220000000     0.0477676  
H55      H      0.143100000000     0.751880000000     0.216080000000     0.10495    
H56      H      0.375390000000     0.705370000000     0.235110000000     0.106513   
H57      H      0.287740000000     0.777490000000     0.239900000000     0.0474719  
H58      H      0.265280000000     0.731340000000     0.279360000000     0.0501674  
H59      H      0.258970000000     0.728310000000     0.169990000000     0.0469078  
H60      H      0.228830000000     0.682670000000     0.207800000000     0.0489749  
H61      H      0.590290000000     0.687420000000     0.039720000000     0.106606   
H62      H      0.471170000000     0.774700000000     0.931450000000     0.106188   
H63      H      0.476490000000     0.692090000000     0.969800000000     0.0484792  
H64      H      0.458960000000     0.736150000000     0.012680000000     0.0466135  
H65      H      0.602590000000     0.723780000000     0.958140000000     0.0485816  
H66      H      0.583920000000     0.768260000000     0.000320000000     0.0467782  
H67      H      0.568170000000     0.478620000000     0.158710000000     0.108438   
H68      H      0.382750000000     0.432500000000     0.280620000000     0.108584   
H69      H      0.555530000000     0.459510000000     0.239850000000     0.0453703  
H70      H      0.486100000000     0.502740000000     0.247330000000     0.0527389  
H71      H      0.470260000000     0.409920000000     0.194800000000     0.0508127  
H72      H      0.400700000000     0.453270000000     0.200960000000     0.0434955  
H73      H      0.272970000000     0.277050000000     0.789850000000     0.106723   
H74      H      0.154500000000     0.203120000000     0.671490000000     0.106681   
H75      H      0.139750000000     0.233400000000     0.758600000000     0.0479108  
H76      H      0.161610000000     0.278570000000     0.717830000000     0.0483041  
H77      H      0.264570000000     0.199470000000     0.747080000000     0.0503921  
H78      H      0.284490000000     0.244020000000     0.705150000000     0.0455557  
H79      H      0.069010000000     0.168910000000     0.015910000000     0.106899   
H80      H      0.938910000000     0.281680000000     0.945360000000     0.106069   
H81      H      0.938690000000     0.199520000000     0.973930000000     0.0450969  
H82      H      0.947300000000     0.234580000000     0.025790000000     0.0490517  
H83      H      0.066070000000     0.223750000000     0.949490000000     0.0459996  
H84      H      0.068920000000     0.261550000000     0.999500000000     0.0490759  
H85      H      0.933400000000     0.469740000000     0.799850000000     0.106289   
H86      H      0.991870000000     0.489930000000     0.645450000000     0.106011   
H87      H      0.040900000000     0.478650000000     0.728110000000     0.046242   
H88      H      0.993670000000     0.426550000000     0.713920000000     0.0502665  
H89      H      0.920630000000     0.521230000000     0.730400000000     0.0474534  
H90      H      0.876290000000     0.469170000000     0.712780000000     0.0487382  
H91      H      0.265330000000     0.483850000000     0.908660000000     0.106406   
H92      H      0.222710000000     0.512920000000     0.063590000000     0.105683   
H93      H      0.164900000000     0.491540000000     0.985560000000     0.0454966  
H94      H      0.223910000000     0.444860000000     0.000560000000     0.0486573  
H95      H      0.272990000000     0.543540000000     0.973630000000     0.0465044  
H96      H      0.331670000000     0.496870000000     0.989140000000     0.0493567  
In1      In     0.104120000000     0.370550000000     0.862500000000     2.40099    
In2      In     0.417310000000     0.599350000000     0.115690000000     2.4043     
In3      In     0.650730000000     0.850030000000     0.847320000000     2.40814    
In4      In     0.912670000000     0.090160000000     0.115120000000     2.39317    
In5      In     0.542740000000     0.319620000000     0.331390000000     2.40556    
In6      In     0.801500000000     0.574060000000     0.582650000000     2.41426    
In7      In     0.091060000000     0.836100000000     0.351440000000     2.40784    
In8      In     0.312450000000     0.090320000000     0.619320000000     2.40881    
N1       N      0.205950000000     0.922690000000     0.434240000000    -0.214844   
N2       N      0.201210000000     0.994800000000     0.544750000000    -0.21516    
N3       N      0.026950000000     0.733670000000     0.439330000000    -0.214923   
N4       N      0.867580000000     0.666680000000     0.484720000000    -0.215019   
N5       N      0.432380000000     0.229260000000     0.413220000000    -0.214991   
N6       N      0.435570000000     0.164090000000     0.528470000000    -0.214568   
N7       N      0.674570000000     0.402060000000     0.407610000000    -0.214681   
N8       N      0.688780000000     0.471820000000     0.519330000000    -0.215356   
N9       N      0.956210000000     0.929820000000     0.292840000000    -0.215673   
N10      N      0.029810000000     0.999710000000     0.192860000000    -0.21548    
N11      N      0.640710000000     0.230950000000     0.241580000000    -0.214438   
N12      N      0.817830000000     0.175340000000     0.210170000000    -0.215307   
N13      N      0.566860000000     0.940270000000     0.752770000000    -0.215013   
N14      N      0.402260000000     0.009160000000     0.719980000000    -0.215      
N15      N      0.702430000000     0.662780000000     0.671450000000    -0.214332   
N16      N      0.735210000000     0.744300000000     0.772550000000    -0.214882   
N17      N      0.787310000000     0.006660000000     0.035040000000    -0.215479   
N18      N      0.778610000000     0.934370000000     0.924770000000    -0.215407   
N19      N      0.176850000000     0.761720000000     0.243940000000    -0.215756   
N20      N      0.341150000000     0.694110000000     0.208090000000    -0.215116   
N21      N      0.534740000000     0.685690000000     0.033600000000    -0.214393   
N22      N      0.527110000000     0.774040000000     0.936020000000    -0.214537   
N23      N      0.525810000000     0.494010000000     0.177280000000    -0.215835   
N24      N      0.428760000000     0.419270000000     0.264170000000    -0.216606   
N25      N      0.217970000000     0.280810000000     0.782650000000    -0.214558   
N26      N      0.206990000000     0.195640000000     0.682610000000    -0.214938   
N27      N      0.014800000000     0.175640000000     0.023400000000    -0.214744   
N28      N      0.995260000000     0.280510000000     0.945870000000    -0.215072   
N29      N      0.975710000000     0.452520000000     0.782940000000    -0.214185   
N30      N      0.942840000000     0.499670000000     0.660730000000    -0.214938   
N31      N      0.227390000000     0.466050000000     0.929050000000    -0.2163     
N32      N      0.268660000000     0.523610000000     0.045170000000    -0.215075   
O1       O      0.009120000000     0.419790000000     0.853140000000    -0.495434   
O2       O      0.070820000000     0.402670000000     0.792040000000    -0.49384    
O3       O      0.138710000000     0.410700000000     0.928660000000    -0.50398    
O4       O      0.099900000000     0.312630000000     0.917480000000    -0.501009   
O5       O      0.112830000000     0.317480000000     0.803210000000    -0.498219   
O6       O      0.000260000000     0.339510000000     0.892320000000    -0.4953     
O7       O      0.192250000000     0.425420000000     0.863910000000    -0.504104   
O8       O      0.208020000000     0.333600000000     0.842240000000    -0.498032   
O9       O      0.505420000000     0.544230000000     0.116380000000    -0.496858   
O10      O      0.438060000000     0.549890000000     0.177070000000    -0.501214   
O11      O      0.427820000000     0.652040000000     0.055850000000    -0.498518   
O12      O      0.375280000000     0.563700000000     0.049060000000    -0.500494   
O13      O      0.429160000000     0.646040000000     0.180280000000    -0.501316   
O14      O      0.310880000000     0.559980000000     0.111290000000    -0.499196   
O15      O      0.523310000000     0.632310000000     0.092590000000    -0.495583   
O16      O      0.329110000000     0.647170000000     0.143270000000    -0.498983   
O17      O      0.561030000000     0.898110000000     0.821460000000    -0.493433   
O18      O      0.656010000000     0.892650000000     0.779570000000    -0.505077   
O19      O      0.669810000000     0.900010000000     0.908640000000    -0.507164   
O20      O      0.636300000000     0.801350000000     0.910010000000    -0.50495    
O21      O      0.642940000000     0.793770000000     0.791180000000    -0.506039   
O22      O      0.541690000000     0.823970000000     0.874050000000    -0.49206    
O23      O      0.758300000000     0.885020000000     0.863240000000    -0.494048   
O24      O      0.741960000000     0.800580000000     0.828850000000    -0.493048   
O25      O      0.914230000000     0.133920000000     0.182710000000    -0.505252   
O26      O      0.817760000000     0.132560000000     0.142050000000    -0.493288   
O27      O      0.011300000000     0.113400000000     0.072930000000    -0.488807   
O28      O      0.018010000000     0.064620000000     0.147690000000    -0.487135   
O29      O      0.893810000000     0.044350000000     0.050260000000    -0.50549    
O30      O      0.923040000000     0.025570000000     0.161210000000    -0.503227   
O31      O      0.914880000000     0.152410000000     0.065140000000    -0.502813   
O32      O      0.807770000000     0.052210000000     0.099460000000    -0.492741   
O33      O      0.442810000000     0.276870000000     0.349130000000    -0.498199   
O34      O      0.533540000000     0.271240000000     0.394930000000    -0.501237   
O35      O      0.543690000000     0.273240000000     0.266170000000    -0.50018    
O36      O      0.523240000000     0.368310000000     0.269110000000    -0.503892   
O37      O      0.568810000000     0.362480000000     0.396750000000    -0.500131   
O38      O      0.448150000000     0.369940000000     0.325960000000    -0.499045   
O39      O      0.639230000000     0.276470000000     0.307940000000    -0.495116   
O40      O      0.647900000000     0.359110000000     0.342160000000    -0.495554   
O41      O      0.707230000000     0.523430000000     0.579210000000    -0.496316   
O42      O      0.783920000000     0.522170000000     0.523190000000    -0.508187   
O43      O      0.803230000000     0.628220000000     0.640720000000    -0.505324   
O44      O      0.835030000000     0.536880000000     0.650100000000    -0.504766   
O45      O      0.781320000000     0.622670000000     0.520620000000    -0.505891   
O46      O      0.908860000000     0.536120000000     0.592430000000    -0.494871   
O47      O      0.700950000000     0.609120000000     0.612190000000    -0.491114   
O48      O      0.888720000000     0.617490000000     0.546870000000    -0.496383   
O49      O      0.112950000000     0.779050000000     0.405130000000    -0.506322   
O50      O      0.003770000000     0.791250000000     0.385630000000    -0.490508   
O51      O      0.192170000000     0.877420000000     0.368720000000    -0.493034   
O52      O      0.185490000000     0.801140000000     0.314000000000    -0.49549    
O53      O      0.978640000000     0.864400000000     0.335670000000    -0.489069   
O54      O      0.082890000000     0.798130000000     0.280620000000    -0.509887   
O55      O      0.103840000000     0.881290000000     0.416910000000    -0.508008   
O56      O      0.069150000000     0.900850000000     0.307960000000    -0.507056   
O57      O      0.419450000000     0.122690000000     0.596580000000    -0.493258   
O58      O      0.328230000000     0.131950000000     0.551710000000    -0.503647   
O59      O      0.303120000000     0.036910000000     0.560420000000    -0.506004   
O60      O      0.405180000000     0.046660000000     0.648440000000    -0.495002   
O61      O      0.214100000000     0.136690000000     0.629150000000    -0.494429   
O62      O      0.310230000000     0.052790000000     0.690290000000    -0.503878   
O63      O      0.211580000000     0.047390000000     0.604580000000    -0.494453   
O64      O      0.306330000000     0.149620000000     0.672110000000    -0.506051   


