data_structure

_audit_creation_method RASPA-1.0
_audit_creation_date 2023-6-4
_audit_author_name 'Poobodin Mano'

_cell_length_a    17.7105
_cell_length_b    17.546
_cell_length_c    20.4197
_cell_angle_alpha 90
_cell_angle_beta  90
_cell_angle_gamma 120.535
_cell_volume      5465.4

_symmetry_cell_setting          triclinic
_symmetry_space_group_name_Hall 'P 1'
_symmetry_space_group_name_H-M  'P 1'
_symmetry_Int_Tables_number     1

_symmetry_equiv_pos_as_xyz 'x,y,z'

loop_
_atom_site_label
_atom_site_type_symbol
_atom_site_fract_x
_atom_site_fract_y
_atom_site_fract_z
_atom_site_charge
C1       C      0.505430000000     0.716520000000     0.594660000000     0.536205   
C2       C      0.567860000000     0.706530000000     0.759250000000     0.528072   
C3       C      0.362980000000     0.718090000000     0.831350000000     0.536291   
C4       C      0.501110000000     0.940470000000     0.632040000000     0.535964   
C5       C      0.591590000000     0.942330000000     0.791770000000     0.536139   
C6       C      0.288720000000     0.704570000000     0.667040000000     0.527916   
C7       C      0.771200000000     0.481310000000     0.334450000000     0.530029   
C8       C      0.672090000000     0.489290000000     0.482920000000     0.530035   
C9       C      0.858710000000     0.479100000000     0.592070000000     0.530149   
C10      C      0.764640000000     0.254670000000     0.392450000000     0.542305   
C11      C      0.639170000000     0.252440000000     0.531510000000     0.54242    
C12      C      0.968090000000     0.491420000000     0.443860000000     0.529781   
C13      C      0.254790000000     0.595470000000     0.899250000000     0.030365   
C14      C      0.206070000000     0.582490000000     0.464170000000    -0.118501   
C15      C      0.112090000000     0.503160000000     0.461960000000     0.0256673  
C16      C      0.968270000000     0.594550000000     0.665770000000     0.0278644  
C17      C      0.050460000000     0.591390000000     0.647060000000    -0.114784   
C18      C      0.136580000000     0.678730000000     0.658680000000     0.0249324  
C19      C      0.486680000000     0.169390000000     0.573660000000     0.0294058  
C20      C      0.427250000000     0.074920000000     0.599900000000    -0.110564   
C21      C      0.433590000000     0.003820000000     0.559880000000     0.0301914  
C22      C      0.723620000000     0.008010000000     0.863270000000     0.0301661  
C23      C      0.800880000000     0.079720000000     0.823120000000    -0.110593   
C24      C      0.835560000000     0.173990000000     0.349420000000     0.0293419  
C25      C      0.778590000000     0.598100000000     0.261800000000     0.0279259  
C26      C      0.692910000000     0.594650000000     0.779930000000    -0.114758   
C27      C      0.694890000000     0.682130000000     0.768530000000     0.0248277  
C28      C      0.539090000000     0.499860000000     0.465410000000     0.0255414  
C29      C      0.525520000000     0.579530000000     0.462840000000    -0.118257   
C30      C      0.489740000000     0.593000000000     0.527540000000     0.0301927  
C31      C      0.505430000000     0.716520000000     0.094660000000     0.536269   
C32      C      0.567860000000     0.706530000000     0.259250000000     0.5281     
C33      C      0.362980000000     0.718090000000     0.331350000000     0.536266   
C34      C      0.501110000000     0.940470000000     0.132040000000     0.53603    
C35      C      0.591590000000     0.942330000000     0.291780000000     0.536128   
C36      C      0.288720000000     0.704570000000     0.167040000000     0.52781    
C37      C      0.771200000000     0.481310000000     0.834450000000     0.530039   
C38      C      0.672090000000     0.489290000000     0.982920000000     0.530095   
C39      C      0.858710000000     0.479100000000     0.092070000000     0.530056   
C40      C      0.764640000000     0.254670000000     0.892450000000     0.54235    
C41      C      0.639170000000     0.252440000000     0.031500000000     0.542435   
C42      C      0.968090000000     0.491420000000     0.943860000000     0.52991    
C43      C      0.254790000000     0.595470000000     0.399250000000     0.0303693  
C44      C      0.206070000000     0.582490000000     0.964170000000    -0.118475   
C45      C      0.112090000000     0.503160000000     0.961960000000     0.0256968  
C46      C      0.968270000000     0.594550000000     0.165770000000     0.0278635  
C47      C      0.050460000000     0.591390000000     0.147060000000    -0.114799   
C48      C      0.136580000000     0.678730000000     0.158680000000     0.0249311  
C49      C      0.486680000000     0.169390000000     0.073660000000     0.0294052  
C50      C      0.427250000000     0.074920000000     0.099900000000    -0.110567   
C51      C      0.433590000000     0.003820000000     0.059880000000     0.0301952  
C52      C      0.723620000000     0.008010000000     0.363270000000     0.0301625  
C53      C      0.800880000000     0.079720000000     0.323120000000    -0.110586   
C54      C      0.835560000000     0.173990000000     0.849420000000     0.0293494  
C55      C      0.778590000000     0.598100000000     0.761800000000     0.0279237  
C56      C      0.692910000000     0.594650000000     0.279930000000    -0.114765   
C57      C      0.694890000000     0.682130000000     0.268530000000     0.0248479  
C58      C      0.539090000000     0.499860000000     0.965410000000     0.0255571  
C59      C      0.525520000000     0.579530000000     0.962840000000    -0.118243   
C60      C      0.489740000000     0.593000000000     0.027540000000     0.030179   
Fe1      Fe     0.415470000000     0.679880000000     0.713190000000     1.35867    
Fe2      Fe     0.422070000000     0.844160000000     0.739980000000     1.34551    
Fe3      Fe     0.573410000000     0.844260000000     0.684840000000     1.34527    
Fe4      Fe     0.833570000000     0.517350000000     0.463470000000     1.34233    
Fe5      Fe     0.818250000000     0.352300000000     0.503360000000     1.35614    
Fe6      Fe     0.684060000000     0.352360000000     0.421730000000     1.35566    
Fe7      Fe     0.415470000000     0.679880000000     0.213190000000     1.35867    
Fe8      Fe     0.422070000000     0.844160000000     0.239970000000     1.34555    
Fe9      Fe     0.573410000000     0.844260000000     0.184840000000     1.34526    
Fe10     Fe     0.833570000000     0.517350000000     0.963470000000     1.34243    
Fe11     Fe     0.818250000000     0.352300000000     0.003360000000     1.35603    
Fe12     Fe     0.684060000000     0.352360000000     0.921730000000     1.35574    
H1       H      0.208660000000     0.574980000000     0.857100000000     0.0326983  
H2       H      0.283940000000     0.552340000000     0.898200000000     0.0265497  
H3       H      0.078890000000     0.573040000000     0.389650000000     0.104251   
H4       H      0.243190000000     0.572040000000     0.503590000000     0.0537855  
H5       H      0.203280000000     0.642700000000     0.976840000000     0.0577313  
H6       H      0.089320000000     0.482400000000     0.513120000000     0.0289671  
H7       H      0.110720000000     0.446020000000     0.937240000000     0.025316   
H8       H      0.341970000000     0.732830000000     0.929070000000     0.107769   
H9       H      0.965210000000     0.646400000000     0.636510000000     0.0305137  
H10      H      0.971090000000     0.610470000000     0.718740000000     0.025211   
H11      H      0.198550000000     0.625040000000     0.598100000000     0.0996432  
H12      H      0.051860000000     0.538340000000     0.675940000000     0.0575321  
H13      H      0.046270000000     0.573750000000     0.594330000000     0.0650397  
H14      H      0.143310000000     0.697230000000     0.711360000000     0.0324609  
H15      H      0.136380000000     0.732130000000     0.629550000000     0.0254321  
H16      H      0.868800000000     0.461320000000     0.691390000000     0.107463   
H17      H      0.478710000000     0.216350000000     0.605300000000     0.0263522  
H18      H      0.465600000000     0.174900000000     0.523410000000     0.0285505  
H19      H      0.567280000000     0.030830000000     0.557760000000     0.108867   
H20      H      0.442460000000     0.071530000000     0.652290000000     0.0569241  
H21      H      0.358450000000     0.060390000000     0.597780000000     0.045092   
H22      H      0.441930000000     0.021710000000     0.507060000000     0.0247395  
H23      H      0.371020000000     0.939810000000     0.565440000000     0.0344562  
H24      H      0.599940000000     0.164630000000     0.608730000000     0.109962   
H25      H      0.733230000000     0.026020000000     0.416070000000     0.024782   
H26      H      0.722750000000     0.944480000000     0.357740000000     0.0345762  
H27      H      0.716970000000     0.168070000000     0.314390000000     0.109793   
H28      H      0.855670000000     0.066100000000     0.825020000000     0.0450499  
H29      H      0.781930000000     0.076090000000     0.770780000000     0.0568155  
H30      H      0.890350000000     0.221410000000     0.317640000000     0.0261863  
H31      H      0.862580000000     0.179820000000     0.399580000000     0.0287029  
H32      H      0.616270000000     0.033740000000     0.865190000000     0.108954   
H33      H      0.833320000000     0.649360000000     0.291790000000     0.0304523  
H34      H      0.792760000000     0.615040000000     0.209040000000     0.0248187  
H35      H      0.579420000000     0.629410000000     0.829570000000     0.0997321  
H36      H      0.638540000000     0.541930000000     0.750530000000     0.0575854  
H37      H      0.678590000000     0.576370000000     0.832510000000     0.0647743  
H38      H      0.707170000000     0.700990000000     0.215920000000     0.0324747  
H39      H      0.748670000000     0.735240000000     0.297960000000     0.0252906  
H40      H      0.744180000000     0.465330000000     0.234970000000     0.107431   
H41      H      0.540740000000     0.478700000000     0.414340000000     0.0293697  
H42      H      0.482800000000     0.443100000000     0.490340000000     0.0251746  
H43      H      0.540130000000     0.729850000000     0.496740000000     0.107766   
H44      H      0.589170000000     0.639500000000     0.450330000000     0.0574849  
H45      H      0.478230000000     0.569290000000     0.423190000000     0.0533901  
H46      H      0.515210000000     0.572900000000     0.569930000000     0.0326235  
H47      H      0.417170000000     0.549850000000     0.528560000000     0.0264256  
H48      H      0.641790000000     0.568630000000     0.538420000000     0.104303   
H49      H      0.208660000000     0.574980000000     0.357100000000     0.0326999  
H50      H      0.283940000000     0.552340000000     0.398200000000     0.0265452  
H51      H      0.078890000000     0.573040000000     0.889660000000     0.104283   
H52      H      0.243190000000     0.572040000000     0.003590000000     0.0537645  
H53      H      0.203280000000     0.642700000000     0.476830000000     0.0577373  
H54      H      0.089320000000     0.482400000000     0.013120000000     0.0289438  
H55      H      0.110720000000     0.446020000000     0.437240000000     0.025317   
H56      H      0.341970000000     0.732830000000     0.429070000000     0.107761   
H57      H      0.965210000000     0.646400000000     0.136510000000     0.0305096  
H58      H      0.971090000000     0.610470000000     0.218740000000     0.0252113  
H59      H      0.198550000000     0.625040000000     0.098100000000     0.0996364  
H60      H      0.051860000000     0.538340000000     0.175930000000     0.0575421  
H61      H      0.046270000000     0.573750000000     0.094330000000     0.0650349  
H62      H      0.143310000000     0.697230000000     0.211360000000     0.032464   
H63      H      0.136380000000     0.732130000000     0.129550000000     0.0254287  
H64      H      0.868800000000     0.461320000000     0.191390000000     0.107462   
H65      H      0.478710000000     0.216350000000     0.105300000000     0.0263512  
H66      H      0.465600000000     0.174900000000     0.023400000000     0.0285432  
H67      H      0.567280000000     0.030830000000     0.057760000000     0.108869   
H68      H      0.442460000000     0.071530000000     0.152290000000     0.0569238  
H69      H      0.358450000000     0.060390000000     0.097780000000     0.04509    
H70      H      0.441930000000     0.021710000000     0.007060000000     0.0247314  
H71      H      0.371020000000     0.939810000000     0.065440000000     0.0344528  
H72      H      0.599940000000     0.164630000000     0.108730000000     0.10996    
H73      H      0.733230000000     0.026020000000     0.916070000000     0.0247913  
H74      H      0.722750000000     0.944480000000     0.857740000000     0.0345811  
H75      H      0.716970000000     0.168070000000     0.814390000000     0.109768   
H76      H      0.855670000000     0.066100000000     0.325020000000     0.0450463  
H77      H      0.781930000000     0.076090000000     0.270780000000     0.0568182  
H78      H      0.890350000000     0.221410000000     0.817640000000     0.0261842  
H79      H      0.862580000000     0.179820000000     0.899580000000     0.0287086  
H80      H      0.616270000000     0.033740000000     0.365200000000     0.108925   
H81      H      0.833320000000     0.649360000000     0.791790000000     0.0304541  
H82      H      0.792760000000     0.615040000000     0.709040000000     0.0248203  
H83      H      0.579420000000     0.629410000000     0.329570000000     0.0997038  
H84      H      0.638540000000     0.541930000000     0.250530000000     0.0575883  
H85      H      0.678590000000     0.576370000000     0.332510000000     0.0647754  
H86      H      0.707170000000     0.700990000000     0.715920000000     0.0324778  
H87      H      0.748670000000     0.735240000000     0.797960000000     0.0252992  
H88      H      0.744180000000     0.465330000000     0.734970000000     0.10743    
H89      H      0.540740000000     0.478700000000     0.914340000000     0.0293669  
H90      H      0.482800000000     0.443100000000     0.990340000000     0.0251798  
H91      H      0.540130000000     0.729850000000     0.996740000000     0.107764   
H92      H      0.589170000000     0.639500000000     0.950330000000     0.057488   
H93      H      0.478230000000     0.569290000000     0.923190000000     0.0533892  
H94      H      0.515210000000     0.572900000000     0.069930000000     0.0326259  
H95      H      0.417170000000     0.549850000000     0.028560000000     0.0264222  
H96      H      0.641790000000     0.568630000000     0.038420000000     0.104302   
N1       N      0.053500000000     0.525990000000     0.427200000000    -0.242837   
N2       N      0.324370000000     0.687840000000     0.890370000000    -0.245101   
N3       N      0.209830000000     0.668550000000     0.636780000000    -0.242709   
N4       N      0.890960000000     0.507430000000     0.653230000000    -0.243788   
N5       N      0.507440000000     0.994810000000     0.582300000000    -0.242212   
N6       N      0.579030000000     0.194040000000     0.574250000000    -0.243715   
N7       N      0.767160000000     0.197450000000     0.349130000000    -0.24363    
N8       N      0.640130000000     0.997740000000     0.840990000000    -0.242186   
N9       N      0.611300000000     0.671900000000     0.790250000000    -0.242616   
N10      N      0.767960000000     0.510730000000     0.273590000000    -0.243757   
N11      N      0.513060000000     0.685440000000     0.535840000000    -0.245069   
N12      N      0.620590000000     0.522570000000     0.500220000000    -0.242924   
N13      N      0.053500000000     0.525990000000     0.927200000000    -0.242887   
N14      N      0.324370000000     0.687840000000     0.390370000000    -0.245097   
N15      N      0.209830000000     0.668550000000     0.136780000000    -0.242691   
N16      N      0.890960000000     0.507430000000     0.153230000000    -0.243774   
N17      N      0.507440000000     0.994810000000     0.082300000000    -0.242223   
N18      N      0.579030000000     0.194040000000     0.074250000000    -0.243687   
N19      N      0.767160000000     0.197450000000     0.849140000000    -0.243643   
N20      N      0.640130000000     0.997740000000     0.340980000000    -0.242222   
N21      N      0.611300000000     0.671900000000     0.290240000000    -0.242619   
N22      N      0.767960000000     0.510730000000     0.773590000000    -0.243758   
N23      N      0.513060000000     0.685440000000     0.035850000000    -0.245105   
N24      N      0.620590000000     0.522570000000     0.000220000000    -0.242953   
O1       O      0.602660000000     0.761620000000     0.712810000000    -0.49193    
O2       O      0.429200000000     0.892610000000     0.660370000000    -0.508356   
O3       O      0.489030000000     0.677920000000     0.773480000000    -0.511313   
O4       O      0.471290000000     0.664800000000     0.642670000000    -0.506807   
O5       O      0.615550000000     0.894330000000     0.763950000000    -0.508393   
O6       O      0.309570000000     0.760490000000     0.712900000000    -0.492101   
O7       O      0.470560000000     0.789920000000     0.712660000000    -0.871714   
O8       O      0.411430000000     0.799520000000     0.821830000000    -0.50753    
O9       O      0.344970000000     0.665610000000     0.783840000000    -0.506954   
O10      O      0.538630000000     0.798050000000     0.603440000000    -0.50754    
O11      O      0.339090000000     0.676300000000     0.652950000000    -0.511145   
O12      O      0.522450000000     0.939980000000     0.772900000000    -0.501677   
O13      O      0.568370000000     0.939020000000     0.650920000000    -0.501343   
O14      O      0.649450000000     0.433720000000     0.436830000000    -0.502765   
O15      O      0.828940000000     0.301980000000     0.428920000000    -0.508096   
O16      O      0.746470000000     0.519630000000     0.508620000000    -0.504582   
O17      O      0.795930000000     0.533040000000     0.382980000000    -0.501603   
O18      O      0.622180000000     0.300010000000     0.495580000000    -0.507972   
O19      O      0.934660000000     0.434830000000     0.489290000000    -0.503035   
O20      O      0.778350000000     0.406780000000     0.462840000000    -0.87033    
O21      O      0.810380000000     0.397920000000     0.581220000000    -0.505841   
O22      O      0.886240000000     0.531820000000     0.544130000000    -0.501802   
O23      O      0.738360000000     0.399990000000     0.344380000000    -0.505786   
O24      O      0.923940000000     0.521550000000     0.418370000000    -0.504376   
O25      O      0.712340000000     0.257170000000     0.526660000000    -0.511978   
O26      O      0.695710000000     0.258460000000     0.397280000000    -0.511582   
O27      O      0.602660000000     0.761620000000     0.212810000000    -0.491935   
O28      O      0.429200000000     0.892610000000     0.160370000000    -0.508467   
O29      O      0.489030000000     0.677920000000     0.273480000000    -0.511322   
O30      O      0.471290000000     0.664800000000     0.142670000000    -0.506824   
O31      O      0.615550000000     0.894330000000     0.263950000000    -0.508359   
O32      O      0.309570000000     0.760490000000     0.212910000000    -0.492071   
O33      O      0.470560000000     0.789920000000     0.212660000000    -0.87176    
O34      O      0.411430000000     0.799520000000     0.321830000000    -0.507455   
O35      O      0.344970000000     0.665610000000     0.283840000000    -0.50694    
O36      O      0.538630000000     0.798050000000     0.103440000000    -0.507554   
O37      O      0.339090000000     0.676300000000     0.152950000000    -0.511121   
O38      O      0.522450000000     0.939980000000     0.272900000000    -0.501635   
O39      O      0.568370000000     0.939020000000     0.150910000000    -0.501356   
O40      O      0.649450000000     0.433720000000     0.936830000000    -0.502789   
O41      O      0.828940000000     0.301980000000     0.928920000000    -0.50807    
O42      O      0.746470000000     0.519630000000     0.008620000000    -0.504638   
O43      O      0.795930000000     0.533040000000     0.882980000000    -0.501611   
O44      O      0.622180000000     0.300010000000     0.995580000000    -0.508021   
O45      O      0.934660000000     0.434830000000     0.989280000000    -0.503069   
O46      O      0.778350000000     0.406780000000     0.962830000000    -0.870327   
O47      O      0.810380000000     0.397920000000     0.081220000000    -0.505812   
O48      O      0.886240000000     0.531820000000     0.044120000000    -0.501819   
O49      O      0.738360000000     0.399990000000     0.844380000000    -0.505789   
O50      O      0.923940000000     0.521550000000     0.918370000000    -0.50441    
O51      O      0.712340000000     0.257170000000     0.026660000000    -0.511989   
O52      O      0.695710000000     0.258460000000     0.897280000000    -0.5116     


