data_structure

_audit_creation_method RASPA-1.0
_audit_creation_date 2023-6-4
_audit_author_name 'Poobodin Mano'

_cell_length_a    17.7139
_cell_length_b    18.8138
_cell_length_c    17.0296
_cell_angle_alpha 90
_cell_angle_beta  90
_cell_angle_gamma 120.51
_cell_volume      4889.57

_symmetry_cell_setting          triclinic
_symmetry_space_group_name_Hall 'P 1'
_symmetry_space_group_name_H-M  'P 1'
_symmetry_Int_Tables_number     1

_symmetry_equiv_pos_as_xyz 'x,y,z'

loop_
_atom_site_label
_atom_site_type_symbol
_atom_site_fract_x
_atom_site_fract_y
_atom_site_fract_z
_atom_site_charge
C1       C      0.575140000000     0.710650000000     0.667180000000     0.529339   
C2       C      0.644990000000     0.737720000000     0.866440000000     0.531402   
C3       C      0.423920000000     0.726270000000     0.943510000000     0.523616   
C4       C      0.526830000000     0.899730000000     0.681530000000     0.53519    
C5       C      0.629670000000     0.945860000000     0.871930000000     0.537043   
C6       C      0.341980000000     0.676340000000     0.748600000000     0.530261   
C7       C      0.776190000000     0.457740000000     0.168670000000     0.540817   
C8       C      0.773290000000     0.503060000000     0.375130000000     0.530772   
C9       C      0.016170000000     0.556550000000     0.403740000000     0.533666   
C10      C      0.854240000000     0.297140000000     0.216700000000     0.532058   
C11      C      0.825540000000     0.319770000000     0.422200000000     0.541121   
C12      C      0.031520000000     0.531730000000     0.193730000000     0.532279   
C13      C      0.129790000000     0.566880000000     0.991590000000    -0.0807146  
C14      C      0.222280000000     0.644360000000     0.990120000000    -0.0782932  
C15      C      0.294680000000     0.629880000000     0.022040000000     0.013486   
C16      C      0.069450000000     0.570470000000     0.054600000000     0.0150382  
C17      C      0.109630000000     0.593170000000     0.682860000000    -0.0806738  
C18      C      0.124770000000     0.628140000000     0.599130000000    -0.0806992  
C19      C      0.052620000000     0.567190000000     0.544130000000     0.0142418  
C20      C      0.189280000000     0.644240000000     0.735470000000     0.0157119  
C21      C      0.616430000000     0.081820000000     0.573350000000    -0.0818751  
C22      C      0.694110000000     0.137000000000     0.519960000000    -0.0809001  
C23      C      0.724870000000     0.229080000000     0.527790000000     0.0138477  
C24      C      0.593570000000     0.991780000000     0.565910000000     0.016547   
C25      C      0.655110000000     0.079030000000     0.037210000000    -0.081357   
C26      C      0.748150000000     0.148620000000     0.057970000000    -0.0793734  
C27      C      0.758060000000     0.165200000000     0.146720000000     0.0136661  
C28      C      0.641280000000     0.063630000000     0.948310000000     0.0152378  
C29      C      0.742550000000     0.637400000000     0.985350000000    -0.0826319  
C30      C      0.709480000000     0.562440000000     0.040170000000    -0.0816848  
C31      C      0.781310000000     0.541120000000     0.053560000000     0.0169425  
C32      C      0.672450000000     0.660610000000     0.969690000000     0.0142662  
C33      C      0.614550000000     0.581850000000     0.520860000000    -0.0804204  
C34      C      0.609910000000     0.497810000000     0.520200000000    -0.0812031  
C35      C      0.636070000000     0.477300000000     0.440630000000     0.0137486  
C36      C      0.579730000000     0.596290000000     0.598620000000     0.0125245  
Fe1      Fe     0.483580000000     0.682250000000     0.809260000000     1.33927    
Fe2      Fe     0.464170000000     0.824890000000     0.820100000000     1.35168    
Fe3      Fe     0.625370000000     0.842390000000     0.760360000000     1.34761    
Fe4      Fe     0.909640000000     0.542570000000     0.277740000000     1.3463     
Fe5      Fe     0.955620000000     0.420510000000     0.316010000000     1.36122    
Fe6      Fe     0.772730000000     0.370870000000     0.296860000000     1.34498    
H1       H      0.000220000000     0.525460000000     0.038810000000     0.0344423  
H2       H      0.074920000000     0.632010000000     0.055760000000     0.0286912  
H3       H      0.283080000000     0.614610000000     0.085480000000     0.0252694  
H4       H      0.293770000000     0.577880000000     0.990080000000     0.0359928  
H5       H      0.223740000000     0.696190000000     0.022900000000     0.0445725  
H6       H      0.238530000000     0.665230000000     0.928150000000     0.0515454  
H7       H      0.394260000000     0.753140000000     0.052990000000     0.101346   
H8       H      0.098560000000     0.562000000000     0.933620000000     0.0377936  
H9       H      0.132610000000     0.509460000000     0.998390000000     0.0447293  
H10      H      0.141610000000     0.542530000000     0.140730000000     0.103297   
H11      H      0.170110000000     0.625280000000     0.797450000000     0.0247799  
H12      H      0.210650000000     0.710920000000     0.731810000000     0.0323414  
H13      H      0.057410000000     0.510690000000     0.538150000000     0.037282   
H14      H      0.987330000000     0.548160000000     0.569900000000     0.0320156  
H15      H      0.189000000000     0.640210000000     0.576180000000     0.051631   
H16      H      0.125210000000     0.687470000000     0.600290000000     0.0442517  
H17      H      0.084670000000     0.667840000000     0.462670000000     0.102395   
H18      H      0.052140000000     0.593610000000     0.708560000000     0.0382805  
H19      H      0.094470000000     0.528070000000     0.682150000000     0.0423297  
H20      H      0.251130000000     0.583430000000     0.677120000000     0.102415   
H21      H      0.652110000000     0.986710000000     0.579440000000     0.036031   
H22      H      0.573610000000     0.971650000000     0.504210000000     0.0248299  
H23      H      0.675620000000     0.242100000000     0.501570000000     0.0338192  
H24      H      0.733050000000     0.245930000000     0.591050000000     0.0262044  
H25      H      0.676040000000     0.118230000000     0.457660000000     0.0450582  
H26      H      0.749420000000     0.127420000000     0.535280000000     0.0444409  
H27      H      0.859760000000     0.265720000000     0.509480000000     0.10167    
H28      H      0.633720000000     0.101860000000     0.635460000000     0.0488915  
H29      H      0.558820000000     0.087130000000     0.556540000000     0.0430541  
H30      H      0.458040000000     0.927910000000     0.601110000000     0.102201   
H31      H      0.674860000000     0.123310000000     0.916190000000     0.0252923  
H32      H      0.570040000000     0.034780000000     0.935860000000     0.0348382  
H33      H      0.703380000000     0.172810000000     0.168570000000     0.0366128  
H34      H      0.754140000000     0.111050000000     0.176910000000     0.0271259  
H35      H      0.761750000000     0.206090000000     0.027150000000     0.0475125  
H36      H      0.796970000000     0.131920000000     0.038260000000     0.0431483  
H37      H      0.898560000000     0.245290000000     0.134750000000     0.101599   
H38      H      0.640370000000     0.021020000000     0.067580000000     0.0492771  
H39      H      0.607470000000     0.096560000000     0.058750000000     0.0403464  
H40      H      0.738260000000     0.026050000000     0.937960000000     0.102283   
H41      H      0.659540000000     0.685010000000     0.024340000000     0.0332497  
H42      H      0.609900000000     0.604850000000     0.951990000000     0.0326671  
H43      H      0.804760000000     0.533370000000     0.995370000000     0.0227016  
H44      H      0.837620000000     0.592970000000     0.084600000000     0.0352204  
H45      H      0.651360000000     0.508560000000     0.013280000000     0.0443213  
H46      H      0.689800000000     0.576170000000     0.097620000000     0.0495078  
H47      H      0.706910000000     0.408670000000     0.065530000000     0.100821   
H48      H      0.801090000000     0.691330000000     0.011710000000     0.0429762  
H49      H      0.762230000000     0.622730000000     0.928320000000     0.0436465  
H50      H      0.767950000000     0.757190000000     0.892960000000     0.101414   
H51      H      0.614510000000     0.588190000000     0.649130000000     0.0327081  
H52      H      0.508940000000     0.549790000000     0.605290000000     0.0320105  
H53      H      0.614210000000     0.410450000000     0.439670000000     0.0341909  
H54      H      0.601130000000     0.487920000000     0.391950000000     0.0291817  
H55      H      0.541440000000     0.448650000000     0.533270000000     0.0395114  
H56      H      0.652590000000     0.496190000000     0.567220000000     0.0455857  
H57      H      0.768090000000     0.581960000000     0.456570000000     0.102445   
H58      H      0.683580000000     0.632070000000     0.512710000000     0.044692   
H59      H      0.574890000000     0.584520000000     0.471560000000     0.0449553  
H60      H      0.616850000000     0.717740000000     0.552490000000     0.101869   
N1       N      0.379290000000     0.706040000000     0.012420000000    -0.240049   
N2       N      0.087810000000     0.550430000000     0.132790000000    -0.240621   
N3       N      0.057950000000     0.604010000000     0.467020000000    -0.241021   
N4       N      0.261890000000     0.631310000000     0.715270000000    -0.241493   
N5       N      0.810290000000     0.276100000000     0.489480000000    -0.242594   
N6       N      0.520030000000     0.938920000000     0.617350000000    -0.241555   
N7       N      0.843370000000     0.238230000000     0.164300000000    -0.240447   
N8       N      0.675390000000     0.011390000000     0.920510000000    -0.24123    
N9       N      0.746880000000     0.463150000000     0.096550000000    -0.242861   
N10      N      0.701480000000     0.723630000000     0.907950000000    -0.240508   
N11      N      0.730940000000     0.526250000000     0.426520000000    -0.239256   
N12      N      0.591470000000     0.679330000000     0.601660000000    -0.24002    
O1       O      0.672210000000     0.784700000000     0.807040000000    -0.499434   
O2       O      0.459060000000     0.851870000000     0.719370000000    -0.512002   
O3       O      0.564740000000     0.700020000000     0.883070000000    -0.504659   
O4       O      0.544500000000     0.667540000000     0.728600000000    -0.496329   
O5       O      0.662830000000     0.904320000000     0.849160000000    -0.507696   
O6       O      0.357130000000     0.732700000000     0.797520000000    -0.50085    
O7       O      0.524820000000     0.783400000000     0.796260000000    -0.868891   
O8       O      0.465590000000     0.800430000000     0.922860000000    -0.505898   
O9       O      0.412280000000     0.671370000000     0.893940000000    -0.491644   
O10      O      0.596360000000     0.785190000000     0.668820000000    -0.50654    
O11      O      0.399760000000     0.657870000000     0.736020000000    -0.505703   
O12      O      0.555030000000     0.927720000000     0.846810000000    -0.506795   
O13      O      0.600680000000     0.913180000000     0.705600000000    -0.497324   
O14      O      0.731870000000     0.436840000000     0.336050000000    -0.496533   
O15      O      0.929320000000     0.358630000000     0.227670000000    -0.509745   
O16      O      0.854160000000     0.549410000000     0.364380000000    -0.507871   
O17      O      0.819890000000     0.521270000000     0.210200000000    -0.507668   
O18      O      0.775730000000     0.345040000000     0.399460000000    -0.505779   
O19      O      0.043050000000     0.502350000000     0.256010000000    -0.505904   
O20      O      0.878590000000     0.444320000000     0.296940000000    -0.869483   
O21      O      0.985280000000     0.480020000000     0.405690000000    -0.509149   
O22      O      0.007250000000     0.588860000000     0.342050000000    -0.499756   
O23      O      0.760100000000     0.388980000000     0.194400000000    -0.512052   
O24      O      0.966900000000     0.541980000000     0.189240000000    -0.504554   
O25      O      0.889840000000     0.332860000000     0.380360000000    -0.515315   
O26      O      0.790300000000     0.289130000000     0.257080000000    -0.498145   


