data_structure

_audit_creation_method RASPA-1.0
_audit_creation_date 2023-6-4
_audit_author_name 'Poobodin Mano'

_cell_length_a    19.2655
_cell_length_b    19.3827
_cell_length_c    21.9783
_cell_angle_alpha 90
_cell_angle_beta  90
_cell_angle_gamma 120.498
_cell_volume      7071.6

_symmetry_cell_setting          triclinic
_symmetry_space_group_name_Hall 'P 1'
_symmetry_space_group_name_H-M  'P 1'
_symmetry_Int_Tables_number     1

_symmetry_equiv_pos_as_xyz 'x,y,z'

loop_
_atom_site_label
_atom_site_type_symbol
_atom_site_fract_x
_atom_site_fract_y
_atom_site_fract_z
_atom_site_charge
C1       C      0.570370000000     0.716040000000     0.610580000000     0.524073   
C2       C      0.559050000000     0.705750000000     0.774360000000     0.523895   
C3       C      0.355700000000     0.716150000000     0.774100000000     0.524549   
C4       C      0.559060000000     0.918100000000     0.609420000000     0.523808   
C5       C      0.571290000000     0.919760000000     0.773150000000     0.52457    
C6       C      0.355060000000     0.703400000000     0.610490000000     0.524809   
C7       C      0.750310000000     0.510060000000     0.110580000000     0.524173   
C8       C      0.761620000000     0.520350000000     0.274370000000     0.523773   
C9       C      0.964960000000     0.509940000000     0.274100000000     0.524437   
C10      C      0.761600000000     0.308000000000     0.109420000000     0.523821   
C11      C      0.749370000000     0.306330000000     0.273150000000     0.524377   
C12      C      0.965610000000     0.522680000000     0.110490000000     0.524672   
C13      C      0.239990000000     0.715650000000     0.906540000000    -0.0894506  
C14      C      0.189980000000     0.633500000000     0.916880000000     0.0359119  
C15      C      0.196960000000     0.579600000000     0.878640000000    -0.0899788  
C16      C      0.252520000000     0.608270000000     0.830940000000     0.0776778  
C17      C      0.295570000000     0.742290000000     0.858890000000     0.0762509  
C18      C      0.130890000000     0.604210000000     0.967430000000     0.0358616  
C19      C      0.081730000000     0.636960000000     0.977510000000    -0.0894965  
C20      C      0.026310000000     0.608600000000     0.025290000000     0.0765065  
C21      C      0.067920000000     0.517080000000     0.053880000000     0.077744   
C22      C      0.123260000000     0.543370000000     0.006080000000    -0.0899026  
C23      C      0.123710000000     0.646480000000     0.378640000000    -0.0899499  
C24      C      0.130690000000     0.592580000000     0.416880000000     0.0359191  
C25      C      0.080680000000     0.510430000000     0.406540000000    -0.0894906  
C26      C      0.025100000000     0.483790000000     0.358890000000     0.0764462  
C27      C      0.068150000000     0.617820000000     0.330940000000     0.0776446  
C28      C      0.189770000000     0.621860000000     0.467430000000     0.0358972  
C29      C      0.238930000000     0.589120000000     0.477510000000    -0.0894204  
C30      C      0.294350000000     0.617490000000     0.525300000000     0.0763186  
C31      C      0.252740000000     0.709000000000     0.553880000000     0.0777209  
C32      C      0.197400000000     0.682710000000     0.506080000000    -0.0900019  
C33      C      0.558410000000     0.032920000000     0.477230000000    -0.0894158  
C34      C      0.640940000000     0.083150000000     0.466760000000     0.0357852  
C35      C      0.695560000000     0.076480000000     0.504780000000    -0.0897835  
C36      C      0.667180000000     0.021100000000     0.552420000000     0.0773963  
C37      C      0.532100000000     0.977550000000     0.524770000000     0.0761776  
C38      C      0.669790000000     0.142090000000     0.416310000000     0.0358187  
C39      C      0.731000000000     0.150340000000     0.377350000000    -0.089941   
C40      C      0.756580000000     0.205290000000     0.329510000000     0.0776003  
C41      C      0.663730000000     0.245380000000     0.358680000000     0.0761651  
C42      C      0.636040000000     0.190320000000     0.406510000000    -0.0892829  
C43      C      0.684620000000     0.035780000000     0.906510000000    -0.0893788  
C44      C      0.650860000000     0.084000000000     0.916310000000     0.0358768  
C45      C      0.589650000000     0.075740000000     0.877350000000    -0.0899556  
C46      C      0.564070000000     0.020800000000     0.829510000000     0.0776097  
C47      C      0.656920000000     0.980720000000     0.858680000000     0.0762283  
C48      C      0.679710000000     0.142940000000     0.966760000000     0.0356696  
C49      C      0.762240000000     0.193180000000     0.977220000000    -0.0893834  
C50      C      0.788560000000     0.248550000000     0.024770000000     0.0761682  
C51      C      0.653470000000     0.205000000000     0.052420000000     0.0773113  
C52      C      0.625100000000     0.149610000000     0.004780000000    -0.0895802  
C53      C      0.732050000000     0.647640000000     0.006340000000    -0.0897369  
C54      C      0.670520000000     0.594150000000     0.967560000000     0.0357012  
C55      C      0.636640000000     0.511880000000     0.977470000000    -0.0892876  
C56      C      0.664450000000     0.484750000000     0.025210000000     0.076103   
C57      C      0.757760000000     0.618480000000     0.054120000000     0.0774445  
C58      C      0.641480000000     0.623930000000     0.917160000000     0.0357306  
C59      C      0.695940000000     0.685500000000     0.878930000000    -0.0897039  
C60      C      0.667380000000     0.712020000000     0.831240000000     0.0773298  
C61      C      0.532400000000     0.619490000000     0.859260000000     0.0760452  
C62      C      0.558900000000     0.590900000000     0.906860000000    -0.0892911  
C63      C      0.684040000000     0.714220000000     0.477480000000    -0.0892505  
C64      C      0.650160000000     0.631960000000     0.467570000000     0.0357596  
C65      C      0.588630000000     0.578470000000     0.506340000000    -0.089782   
C66      C      0.562920000000     0.607620000000     0.554120000000     0.077457   
C67      C      0.656220000000     0.741350000000     0.525210000000     0.0760614  
C68      C      0.679200000000     0.602180000000     0.417160000000     0.0357395  
C69      C      0.624730000000     0.540610000000     0.378930000000    -0.0897115  
C70      C      0.653290000000     0.514090000000     0.331240000000     0.077308   
C71      C      0.788270000000     0.606610000000     0.359260000000     0.0760883  
C72      C      0.761780000000     0.635210000000     0.406860000000    -0.0893322  
Fe1      Fe     0.444710000000     0.680060000000     0.692410000000     1.3534     
Fe2      Fe     0.445210000000     0.829200000000     0.691770000000     1.35533    
Fe3      Fe     0.595710000000     0.830380000000     0.691870000000     1.35068    
Fe4      Fe     0.875960000000     0.546030000000     0.192400000000     1.35336    
Fe5      Fe     0.875460000000     0.396890000000     0.191770000000     1.35517    
Fe6      Fe     0.724960000000     0.395710000000     0.191880000000     1.35074    
H1       H      0.158920000000     0.515570000000     0.884970000000     0.051392   
H2       H      0.255780000000     0.564540000000     0.802170000000     0.0217679  
H3       H      0.333460000000     0.806420000000     0.852640000000     0.0243332  
H4       H      0.236950000000     0.759200000000     0.935580000000     0.0512996  
H5       H      0.085320000000     0.683570000000     0.948160000000     0.051331   
H6       H      0.989060000000     0.635250000000     0.031350000000     0.0241647  
H7       H      0.064150000000     0.470080000000     0.082930000000     0.0217975  
H8       H      0.160660000000     0.516960000000     0.999980000000     0.0513486  
H9       H      0.083710000000     0.466870000000     0.435580000000     0.0513322  
H10      H      0.987200000000     0.419660000000     0.352640000000     0.0241898  
H11      H      0.064890000000     0.661540000000     0.302170000000     0.0218127  
H12      H      0.161750000000     0.710510000000     0.384970000000     0.0513901  
H13      H      0.235340000000     0.542510000000     0.448160000000     0.0513     
H14      H      0.331610000000     0.590830000000     0.531350000000     0.0243005  
H15      H      0.256510000000     0.756000000000     0.582930000000     0.0217598  
H16      H      0.160000000000     0.709120000000     0.499980000000     0.0514093  
H17      H      0.759910000000     0.114660000000     0.498330000000     0.0513058  
H18      H      0.711430000000     0.018110000000     0.581050000000     0.0217825  
H19      H      0.467620000000     0.939540000000     0.531090000000     0.0243836  
H20      H      0.514280000000     0.035640000000     0.448360000000     0.0512724  
H21      H      0.758190000000     0.113690000000     0.383200000000     0.0513626  
H22      H      0.803880000000     0.209530000000     0.300210000000     0.0217636  
H23      H      0.636280000000     0.281870000000     0.352860000000     0.0243051  
H24      H      0.589100000000     0.186240000000     0.436080000000     0.0512514  
H25      H      0.562460000000     0.112400000000     0.883200000000     0.0513597  
H26      H      0.516770000000     0.016560000000     0.800210000000     0.0217604  
H27      H      0.684370000000     0.944230000000     0.852860000000     0.0242801  
H28      H      0.731550000000     0.039860000000     0.936080000000     0.0512635  
H29      H      0.806370000000     0.190450000000     0.948350000000     0.0512267  
H30      H      0.853030000000     0.286550000000     0.031090000000     0.02436    
H31      H      0.609230000000     0.207980000000     0.081050000000     0.0218298  
H32      H      0.560740000000     0.111440000000     0.998330000000     0.0512349  
H33      H      0.589480000000     0.468600000000     0.948050000000     0.0512399  
H34      H      0.636830000000     0.420560000000     0.031100000000     0.024342   
H35      H      0.805270000000     0.661940000000     0.083290000000     0.021791   
H36      H      0.759390000000     0.711730000000     0.000400000000     0.0513172  
H37      H      0.760320000000     0.712240000000     0.885230000000     0.0512692  
H38      H      0.711530000000     0.759480000000     0.802460000000     0.0217986  
H39      H      0.467910000000     0.592440000000     0.853070000000     0.024392   
H40      H      0.514870000000     0.543800000000     0.935880000000     0.051237   
H41      H      0.561290000000     0.514370000000     0.500390000000     0.0513081  
H42      H      0.515410000000     0.564160000000     0.583290000000     0.0217983  
H43      H      0.683840000000     0.805540000000     0.531110000000     0.0243346  
H44      H      0.731200000000     0.757510000000     0.448060000000     0.051229   
H45      H      0.560360000000     0.513870000000     0.385230000000     0.0513107  
H46      H      0.609140000000     0.466620000000     0.302450000000     0.0218292  
H47      H      0.852770000000     0.633660000000     0.353070000000     0.0243526  
H48      H      0.805810000000     0.682300000000     0.435880000000     0.0512366  
N1       N      0.301440000000     0.688990000000     0.821130000000    -0.215005   
N2       N      0.019810000000     0.549440000000     0.063420000000    -0.214972   
N3       N      0.019230000000     0.537090000000     0.321130000000    -0.214915   
N4       N      0.300860000000     0.676640000000     0.563420000000    -0.215041   
N5       N      0.586060000000     0.972050000000     0.562380000000    -0.214764   
N6       N      0.723200000000     0.252450000000     0.320230000000    -0.214846   
N7       N      0.597450000000     0.973640000000     0.820230000000    -0.21489    
N8       N      0.734600000000     0.254040000000     0.062380000000    -0.214727   
N9       N      0.724200000000     0.537650000000     0.063520000000    -0.214728   
N10      N      0.586220000000     0.679210000000     0.821440000000    -0.214621   
N11      N      0.596480000000     0.688450000000     0.563520000000    -0.214717   
N12      N      0.734460000000     0.546900000000     0.321440000000    -0.214646   
O1       O      0.607830000000     0.756500000000     0.736500000000    -0.495305   
O2       O      0.484860000000     0.871890000000     0.617810000000    -0.503902   
O3       O      0.484840000000     0.677250000000     0.766180000000    -0.503419   
O4       O      0.519480000000     0.667930000000     0.648650000000    -0.496792   
O5       O      0.599590000000     0.874510000000     0.765370000000    -0.502245   
O6       O      0.357480000000     0.753790000000     0.648360000000    -0.497495   
O7       O      0.495260000000     0.779880000000     0.692020000000    -0.872626   
O8       O      0.402020000000     0.789930000000     0.765750000000    -0.50381    
O9       O      0.357590000000     0.667720000000     0.736390000000    -0.496379   
O10      O      0.599030000000     0.789900000000     0.618390000000    -0.502372   
O11      O      0.400960000000     0.675800000000     0.618600000000    -0.503117   
O12      O      0.520580000000     0.916800000000     0.735050000000    -0.49778    
O13      O      0.607940000000     0.916500000000     0.647170000000    -0.494969   
O14      O      0.712840000000     0.469600000000     0.236500000000    -0.495184   
O15      O      0.835800000000     0.354200000000     0.117810000000    -0.503899   
O16      O      0.835830000000     0.548840000000     0.266180000000    -0.503304   
O17      O      0.801200000000     0.558160000000     0.148650000000    -0.496926   
O18      O      0.721070000000     0.351590000000     0.265370000000    -0.502265   
O19      O      0.963180000000     0.472290000000     0.148360000000    -0.497569   
O20      O      0.825400000000     0.446210000000     0.192020000000    -0.872612   
O21      O      0.918640000000     0.436150000000     0.265750000000    -0.503779   
O22      O      0.963090000000     0.558360000000     0.236390000000    -0.496388   
O23      O      0.721630000000     0.436200000000     0.118390000000    -0.502295   
O24      O      0.919710000000     0.550290000000     0.118600000000    -0.503126   
O25      O      0.800080000000     0.309280000000     0.235050000000    -0.497648   
O26      O      0.712720000000     0.309590000000     0.147170000000    -0.494989   


