data_structure

_audit_creation_method RASPA-1.0
_audit_creation_date 2023-6-4
_audit_author_name 'Poobodin Mano'

_cell_length_a    24.1183
_cell_length_b    23.9477
_cell_length_c    57.3034
_cell_angle_alpha 90
_cell_angle_beta  90
_cell_angle_gamma 120
_cell_volume      28663

_symmetry_cell_setting          triclinic
_symmetry_space_group_name_Hall 'P 1'
_symmetry_space_group_name_H-M  'P 1'
_symmetry_Int_Tables_number     1

_symmetry_equiv_pos_as_xyz 'x,y,z'

loop_
_atom_site_label
_atom_site_type_symbol
_atom_site_fract_x
_atom_site_fract_y
_atom_site_fract_z
_atom_site_charge
C1       C      0.560390000000     0.892580000000     0.328680000000     0.523691   
C2       C      0.555530000000     0.894260000000     0.265390000000     0.526341   
C3       C      0.392450000000     0.723070000000     0.264480000000     0.523308   
C4       C      0.550730000000     0.720690000000     0.328530000000     0.525022   
C5       C      0.563560000000     0.731340000000     0.265420000000     0.524034   
C6       C      0.389750000000     0.730410000000     0.327240000000     0.523895   
C7       C      0.790740000000     0.516950000000     0.077060000000     0.522724   
C8       C      0.779250000000     0.502840000000     0.014330000000     0.524217   
C9       C      0.785990000000     0.336700000000     0.016600000000     0.527049   
C10      C      0.951400000000     0.506160000000     0.077380000000     0.523259   
C11      C      0.947150000000     0.506370000000     0.014340000000     0.52407    
C12      C      0.776720000000     0.342730000000     0.079270000000     0.528622   
C13      C      0.061920000000     0.512340000000     0.970220000000    -0.109439   
C14      C      0.339440000000     0.750370000000     0.359350000000     0.078414   
C15      C      0.309690000000     0.642870000000     0.349270000000     0.0804549  
C16      C      0.295260000000     0.728350000000     0.377620000000    -0.0991309  
C17      C      0.160980000000     0.650340000000     0.401730000000    -0.03644    
C18      C      0.116880000000     0.627490000000     0.920060000000    -0.034227   
C19      C      0.212190000000     0.638340000000     0.401440000000    -0.00849828 
C20      C      0.266230000000     0.619300000000     0.367780000000    -0.0987687  
C21      C      0.123960000000     0.593430000000     0.938800000000    -0.0103268  
C22      C      0.047250000000     0.603770000000     0.965820000000    -0.0997971  
C23      C      0.176060000000     0.582240000000     0.938450000000    -0.0343531  
C24      C      0.003250000000     0.580520000000     0.984100000000     0.0795212  
C25      C      0.018480000000     0.490500000000     0.988870000000     0.111271   
C26      C      0.219240000000     0.603820000000     0.419820000000    -0.036502   
C27      C      0.258520000000     0.662280000000     0.382020000000     0.0525157  
C28      C      0.077320000000     0.569700000000     0.958550000000     0.0571651  
C29      C      0.091100000000     0.613100000000     0.114130000000    -0.1108     
C30      C      0.351620000000     0.661960000000     0.229590000000     0.0788384  
C31      C      0.305020000000     0.721410000000     0.244590000000     0.0798136  
C32      C      0.308740000000     0.640530000000     0.210890000000    -0.0972853  
C33      C      0.150270000000     0.608790000000     0.194040000000    -0.0362418  
C34      C      0.106580000000     0.587180000000     0.175570000000    -0.0346892  
C35      C      0.216160000000     0.636480000000     0.189690000000    -0.00818871 
C36      C      0.260680000000     0.699900000000     0.226360000000    -0.097994   
C37      C      0.128170000000     0.594010000000     0.152430000000    -0.0110184  
C38      C      0.029340000000     0.509910000000     0.132570000000    -0.100644   
C39      C      0.194080000000     0.622080000000     0.148070000000    -0.0346404  
C40      C      0.987280000000     0.489530000000     0.113680000000     0.0772085  
C41      C      0.047700000000     0.592090000000     0.095490000000     0.108937   
C42      C      0.237670000000     0.642610000000     0.166550000000    -0.0362701  
C43      C      0.262420000000     0.659200000000     0.209240000000     0.0522691  
C44      C      0.082090000000     0.572070000000     0.132820000000     0.057512   
C45      C      0.662900000000     0.014170000000     0.222120000000    -0.109486   
C46      C      0.704310000000     0.294010000000     0.110990000000     0.0792536  
C47      C      0.784440000000     0.266380000000     0.103560000000     0.0807506  
C48      C      0.681130000000     0.250870000000     0.129700000000    -0.0983502  
C49      C      0.624050000000     0.118560000000     0.155520000000    -0.0363189  
C50      C      0.602480000000     0.073410000000     0.173630000000    -0.0341004  
C51      C      0.687390000000     0.169800000000     0.155300000000    -0.00830387 
C52      C      0.763480000000     0.224080000000     0.122490000000    -0.0989418  
C53      C      0.643500000000     0.079380000000     0.192170000000    -0.0102236  
C54      C      0.557190000000     0.999360000000     0.218780000000    -0.0998106  
C55      C      0.706620000000     0.131940000000     0.192060000000    -0.0342105  
C56      C      0.536840000000     0.953240000000     0.236450000000     0.0804953  
C57      C      0.641710000000     0.968530000000     0.240140000000     0.112156   
C58      C      0.728500000000     0.176180000000     0.173680000000    -0.0363435  
C59      C      0.711030000000     0.215680000000     0.135620000000     0.0527904  
C60      C      0.620950000000     0.030650000000     0.211330000000     0.0576953  
C61      C      0.573640000000     0.012820000000     0.372330000000    -0.111036   
C62      C      0.805890000000     0.281290000000     0.986190000000     0.0792406  
C63      C      0.700010000000     0.258840000000     0.993470000000     0.0804709  
C64      C      0.784420000000     0.236310000000     0.968070000000    -0.0961169  
C65      C      0.734780000000     0.164360000000     0.422790000000    -0.0357348  
C66      C      0.712740000000     0.120140000000     0.404380000000    -0.0346132  
C67      C      0.695720000000     0.155230000000     0.942370000000    -0.00743149 
C68      C      0.677080000000     0.214600000000     0.975070000000    -0.0968728  
C69      C      0.650700000000     0.066680000000     0.404860000000    -0.0110684  
C70      C      0.656160000000     0.986340000000     0.378710000000    -0.101136   
C71      C      0.611310000000     0.057340000000     0.924170000000    -0.0348392  
C72      C      0.632130000000     0.943150000000     0.360070000000     0.0781552  
C73      C      0.551050000000     0.970260000000     0.353340000000     0.111262   
C74      C      0.633780000000     0.100680000000     0.942850000000    -0.0358469  
C75      C      0.719290000000     0.202460000000     0.962080000000     0.051399   
C76      C      0.626590000000     0.021310000000     0.385020000000     0.0583863  
C77      C      0.557270000000     0.647460000000     0.384530000000    -0.109993   
C78      C      0.717690000000     0.481750000000     0.979610000000     0.0787408  
C79      C      0.777740000000     0.588710000000     0.994010000000     0.0798989  
C80      C      0.695950000000     0.502920000000     0.960880000000    -0.0972534  
C81      C      0.694810000000     0.574650000000     0.416370000000    -0.0362324  
C82      C      0.672290000000     0.596660000000     0.398110000000    -0.0345456  
C83      C      0.690770000000     0.591320000000     0.939560000000    -0.00813504 
C84      C      0.755960000000     0.611300000000     0.975740000000    -0.0979765  
C85      C      0.644260000000     0.634680000000     0.402790000000    -0.0109855  
C86      C      0.657320000000     0.688560000000     0.364250000000    -0.100983   
C87      C      0.639890000000     0.651020000000     0.925990000000    -0.0346378  
C88      C      0.633270000000     0.710150000000     0.346450000000     0.0788647  
C89      C      0.533670000000     0.668650000000     0.366280000000     0.108941   
C90      C      0.663450000000     0.629990000000     0.944200000000    -0.036308   
C91      C      0.714700000000     0.568240000000     0.958920000000     0.0522165  
C92      C      0.619230000000     0.656960000000     0.383540000000     0.0578411  
C93      C      0.786260000000     0.614190000000     0.126550000000    -0.110316   
C94      C      0.555000000000     0.645320000000     0.241930000000     0.079983   
C95      C      0.635820000000     0.752700000000     0.233910000000     0.0786607  
C96      C      0.575250000000     0.622790000000     0.223130000000    -0.0966335  
C97      C      0.645360000000     0.581470000000     0.189930000000    -0.035825   
C98      C      0.667270000000     0.560220000000     0.171220000000    -0.0347936  
C99      C      0.650720000000     0.642870000000     0.189490000000    -0.00740871 
C100     C      0.658250000000     0.731690000000     0.215340000000    -0.0958467  
C101     C      0.696290000000     0.600340000000     0.151910000000    -0.0108987  
C102     C      0.681350000000     0.523900000000     0.119690000000    -0.101396   
C103     C      0.701960000000     0.661500000000     0.151330000000    -0.034823   
C104     C      0.705940000000     0.505440000000     0.101070000000     0.0805039  
C105     C      0.810360000000     0.594090000000     0.108110000000     0.110406   
C106     C      0.678770000000     0.682240000000     0.169760000000    -0.0357088  
C107     C      0.627770000000     0.665980000000     0.209530000000     0.0510408  
C108     C      0.721600000000     0.578970000000     0.132500000000     0.0583563  
C109     C      0.560390000000     0.892580000000     0.828670000000     0.523877   
C110     C      0.555530000000     0.894260000000     0.765400000000     0.526524   
C111     C      0.392450000000     0.723070000000     0.764480000000     0.523305   
C112     C      0.550730000000     0.720690000000     0.828530000000     0.525017   
C113     C      0.563560000000     0.731340000000     0.765420000000     0.524267   
C114     C      0.389750000000     0.730410000000     0.827240000000     0.52389    
C115     C      0.790740000000     0.516950000000     0.577060000000     0.522737   
C116     C      0.779250000000     0.502840000000     0.514330000000     0.524268   
C117     C      0.785990000000     0.336700000000     0.516600000000     0.527096   
C118     C      0.951400000000     0.506160000000     0.577380000000     0.523261   
C119     C      0.947150000000     0.506370000000     0.514340000000     0.524107   
C120     C      0.776720000000     0.342730000000     0.579270000000     0.528682   
C121     C      0.061920000000     0.512340000000     0.470220000000    -0.109428   
C122     C      0.339440000000     0.750370000000     0.859350000000     0.0784147  
C123     C      0.309690000000     0.642870000000     0.849270000000     0.0804547  
C124     C      0.295260000000     0.728350000000     0.877620000000    -0.0991305  
C125     C      0.160980000000     0.650340000000     0.901730000000    -0.0364398  
C126     C      0.116880000000     0.627490000000     0.420060000000    -0.0342285  
C127     C      0.212190000000     0.638340000000     0.901440000000    -0.00849757 
C128     C      0.266230000000     0.619300000000     0.867780000000    -0.0987686  
C129     C      0.123960000000     0.593430000000     0.438800000000    -0.0103263  
C130     C      0.047250000000     0.603770000000     0.465820000000    -0.0997961  
C131     C      0.176060000000     0.582240000000     0.438450000000    -0.0343553  
C132     C      0.003250000000     0.580520000000     0.484100000000     0.0795141  
C133     C      0.018480000000     0.490500000000     0.488870000000     0.111228   
C134     C      0.219240000000     0.603820000000     0.919820000000    -0.0365009  
C135     C      0.258520000000     0.662280000000     0.882020000000     0.052516   
C136     C      0.077320000000     0.569700000000     0.458550000000     0.0571571  
C137     C      0.091100000000     0.613100000000     0.614130000000    -0.110799   
C138     C      0.351620000000     0.661960000000     0.729590000000     0.0788391  
C139     C      0.305020000000     0.721410000000     0.744590000000     0.0798145  
C140     C      0.308740000000     0.640530000000     0.710890000000    -0.0972848  
C141     C      0.150270000000     0.608790000000     0.694040000000    -0.0362418  
C142     C      0.106580000000     0.587180000000     0.675570000000    -0.0346893  
C143     C      0.216160000000     0.636480000000     0.689690000000    -0.00818862 
C144     C      0.260680000000     0.699900000000     0.726360000000    -0.0979939  
C145     C      0.128170000000     0.594010000000     0.652430000000    -0.0110181  
C146     C      0.029340000000     0.509910000000     0.632570000000    -0.100644   
C147     C      0.194080000000     0.622080000000     0.648070000000    -0.03464    
C148     C      0.987280000000     0.489530000000     0.613680000000     0.0772088  
C149     C      0.047700000000     0.592090000000     0.595490000000     0.108937   
C150     C      0.237670000000     0.642610000000     0.666550000000    -0.0362695  
C151     C      0.262420000000     0.659200000000     0.709240000000     0.0522695  
C152     C      0.082090000000     0.572070000000     0.632820000000     0.0575123  
C153     C      0.662900000000     0.014170000000     0.722120000000    -0.10948    
C154     C      0.704310000000     0.294010000000     0.610990000000     0.0792529  
C155     C      0.784440000000     0.266380000000     0.603560000000     0.0807555  
C156     C      0.681130000000     0.250870000000     0.629700000000    -0.0983505  
C157     C      0.624050000000     0.118560000000     0.655520000000    -0.0363179  
C158     C      0.602480000000     0.073410000000     0.673630000000    -0.0341008  
C159     C      0.687390000000     0.169800000000     0.655300000000    -0.0083042  
C160     C      0.763480000000     0.224080000000     0.622490000000    -0.0989433  
C161     C      0.643500000000     0.079380000000     0.692170000000    -0.0102216  
C162     C      0.557190000000     0.999360000000     0.718780000000    -0.0998059  
C163     C      0.706620000000     0.131940000000     0.692060000000    -0.0342116  
C164     C      0.536840000000     0.953240000000     0.736450000000     0.0804828  
C165     C      0.641710000000     0.968530000000     0.740140000000     0.112141   
C166     C      0.728500000000     0.176180000000     0.673680000000    -0.0363431  
C167     C      0.711030000000     0.215680000000     0.635620000000     0.0527918  
C168     C      0.620950000000     0.030650000000     0.711330000000     0.0576903  
C169     C      0.573640000000     0.012820000000     0.872330000000    -0.11103    
C170     C      0.805890000000     0.281290000000     0.486190000000     0.0792337  
C171     C      0.700010000000     0.258840000000     0.493470000000     0.0804132  
C172     C      0.784420000000     0.236310000000     0.468070000000    -0.0961144  
C173     C      0.734780000000     0.164360000000     0.922790000000    -0.0357324  
C174     C      0.712740000000     0.120140000000     0.904380000000    -0.0346143  
C175     C      0.695720000000     0.155230000000     0.442370000000    -0.00742942 
C176     C      0.677080000000     0.214600000000     0.475070000000    -0.0968536  
C177     C      0.650700000000     0.066680000000     0.904860000000    -0.0110655  
C178     C      0.656160000000     0.986340000000     0.878710000000    -0.101132   
C179     C      0.611310000000     0.057340000000     0.424170000000    -0.0348389  
C180     C      0.632130000000     0.943150000000     0.860070000000     0.078145   
C181     C      0.551050000000     0.970260000000     0.853340000000     0.111246   
C182     C      0.633780000000     0.100680000000     0.442850000000    -0.03585    
C183     C      0.719290000000     0.202460000000     0.462080000000     0.0513882  
C184     C      0.626590000000     0.021310000000     0.885020000000     0.0583815  
C185     C      0.557270000000     0.647460000000     0.884530000000    -0.109993   
C186     C      0.717690000000     0.481750000000     0.479610000000     0.0787341  
C187     C      0.777740000000     0.588710000000     0.494010000000     0.0798402  
C188     C      0.695950000000     0.502920000000     0.460880000000    -0.0972502  
C189     C      0.694810000000     0.574650000000     0.916370000000    -0.0362306  
C190     C      0.672290000000     0.596660000000     0.898110000000    -0.0345459  
C191     C      0.690770000000     0.591320000000     0.439560000000    -0.00813294 
C192     C      0.755960000000     0.611300000000     0.475740000000    -0.0979572  
C193     C      0.644260000000     0.634680000000     0.902790000000    -0.0109846  
C194     C      0.657320000000     0.688560000000     0.864250000000    -0.100983   
C195     C      0.639890000000     0.651020000000     0.425990000000    -0.0346385  
C196     C      0.633270000000     0.710150000000     0.846450000000     0.0788639  
C197     C      0.533670000000     0.668650000000     0.866280000000     0.108942   
C198     C      0.663450000000     0.629990000000     0.444200000000    -0.0363108  
C199     C      0.714700000000     0.568240000000     0.458920000000     0.0522056  
C200     C      0.619230000000     0.656960000000     0.883540000000     0.0578413  
C201     C      0.786260000000     0.614190000000     0.626550000000    -0.110314   
C202     C      0.555000000000     0.645320000000     0.741930000000     0.0800056  
C203     C      0.635820000000     0.752700000000     0.733910000000     0.0786732  
C204     C      0.575250000000     0.622790000000     0.723130000000    -0.0966522  
C205     C      0.645360000000     0.581470000000     0.689930000000    -0.0357981  
C206     C      0.667270000000     0.560220000000     0.671220000000    -0.0348072  
C207     C      0.650720000000     0.642870000000     0.689500000000    -0.00745403 
C208     C      0.658250000000     0.731690000000     0.715340000000    -0.095862   
C209     C      0.696290000000     0.600340000000     0.651910000000    -0.0108884  
C210     C      0.681350000000     0.523900000000     0.619690000000    -0.101393   
C211     C      0.701960000000     0.661500000000     0.651330000000    -0.0348348  
C212     C      0.705940000000     0.505440000000     0.601070000000     0.0805038  
C213     C      0.810360000000     0.594090000000     0.608110000000     0.110405   
C214     C      0.678770000000     0.682240000000     0.669760000000    -0.0356848  
C215     C      0.627770000000     0.665980000000     0.709530000000     0.0510704  
C216     C      0.721600000000     0.578970000000     0.632500000000     0.0583528  
Fe1      Fe     0.462730000000     0.822650000000     0.296350000000     1.35528    
Fe2      Fe     0.461960000000     0.701830000000     0.296140000000     1.35413    
Fe3      Fe     0.581990000000     0.821800000000     0.297210000000     1.35308    
Fe4      Fe     0.758480000000     0.412820000000     0.046480000000     1.35262    
Fe5      Fe     0.877430000000     0.410890000000     0.047730000000     1.35754    
Fe6      Fe     0.879310000000     0.531920000000     0.045440000000     1.35601    
Fe7      Fe     0.462730000000     0.822650000000     0.796350000000     1.35531    
Fe8      Fe     0.461960000000     0.701830000000     0.796140000000     1.35405    
Fe9      Fe     0.581990000000     0.821800000000     0.797210000000     1.35312    
Fe10     Fe     0.758480000000     0.412820000000     0.546480000000     1.35289    
Fe11     Fe     0.877430000000     0.410890000000     0.547730000000     1.35757    
Fe12     Fe     0.879310000000     0.531920000000     0.545440000000     1.35602    
H1       H      0.314170000000     0.608070000000     0.338510000000     0.0220989  
H2       H      0.981920000000     0.609350000000     0.989060000000     0.0220155  
H3       H      0.258900000000     0.594620000000     0.419970000000     0.0378032  
H4       H      0.076850000000     0.635970000000     0.919310000000     0.0364005  
H5       H      0.058160000000     0.648980000000     0.957730000000     0.0529531  
H6       H      0.154560000000     0.676560000000     0.387560000000     0.037783   
H7       H      0.082380000000     0.483380000000     0.964520000000     0.057392   
H8       H      0.238290000000     0.567790000000     0.370770000000     0.0542395  
H9       H      0.290460000000     0.762810000000     0.388440000000     0.0531531  
H10      H      0.184220000000     0.557570000000     0.952700000000     0.0358493  
H11      H      0.367520000000     0.801960000000     0.356630000000     0.0201841  
H12      H      0.040730000000     0.424720000000     0.019080000000     0.0366956  
H13      H      0.302310000000     0.753200000000     0.257440000000     0.0213786  
H14      H      0.947060000000     0.440660000000     0.114390000000     0.0261746  
H15      H      0.288280000000     0.664120000000     0.162770000000     0.0380636  
H16      H      0.055980000000     0.565930000000     0.179340000000     0.0372903  
H17      H      0.021080000000     0.476700000000     0.146750000000     0.0540452  
H18      H      0.132550000000     0.603250000000     0.211760000000     0.0375622  
H19      H      0.131910000000     0.661660000000     0.114100000000     0.0584684  
H20      H      0.225770000000     0.715720000000     0.225510000000     0.0533535  
H21      H      0.311270000000     0.608830000000     0.197970000000     0.053525   
H22      H      0.211800000000     0.627500000000     0.130360000000     0.0369589  
H23      H      0.386610000000     0.646160000000     0.230320000000     0.0248038  
H24      H      0.104020000000     0.640390000000     0.056470000000     0.0391161  
H25      H      0.825010000000     0.271250000000     0.093700000000     0.0206963  
H26      H      0.487000000000     0.931050000000     0.241630000000     0.0217752  
H27      H      0.777460000000     0.215790000000     0.173910000000     0.0377328  
H28      H      0.554020000000     0.033150000000     0.172750000000     0.0364716  
H29      H      0.522920000000     0.010900000000     0.211310000000     0.0532712  
H30      H      0.591740000000     0.112520000000     0.141360000000     0.0378025  
H31      H      0.711980000000     0.035470000000     0.216170000000     0.0575755  
H32      H      0.787520000000     0.197330000000     0.126620000000     0.0537758  
H33      H      0.640520000000     0.245560000000     0.139620000000     0.0534409  
H34      H      0.739300000000     0.139320000000     0.206220000000     0.0361637  
H35      H      0.680170000000     0.320780000000     0.106990000000     0.0217656  
H36      H      0.730190000000     0.987750000000     0.269500000000     0.0372729  
H37      H      0.665680000000     0.266840000000     0.002950000000     0.0206251  
H38      H      0.656840000000     0.917000000000     0.355970000000     0.0229781  
H39      H      0.602600000000     0.090850000000     0.957730000000     0.0364193  
H40      H      0.743630000000     0.128450000000     0.389490000000     0.0376772  
H41      H      0.697280000000     0.991790000000     0.388310000000     0.0545589  
H42      H      0.782120000000     0.206240000000     0.421390000000     0.0370852  
H43      H      0.550150000000     0.039700000000     0.377150000000     0.0591382  
H44      H      0.626580000000     0.191010000000     0.970930000000     0.0520508  
H45      H      0.818970000000     0.227880000000     0.959040000000     0.0525349  
H46      H      0.563350000000     0.016040000000     0.924910000000     0.037367   
H47      H      0.856660000000     0.306360000000     0.990110000000     0.0244353  
H48      H      0.428530000000     0.917160000000     0.350230000000     0.0360689  
H49      H      0.809860000000     0.623660000000     0.006630000000     0.0217045  
H50      H      0.664810000000     0.734280000000     0.331810000000     0.022114   
H51      H      0.659490000000     0.643170000000     0.961950000000     0.0376318  
H52      H      0.675900000000     0.583230000000     0.380360000000     0.0373262  
H53      H      0.705860000000     0.697300000000     0.363040000000     0.0540439  
H54      H      0.716000000000     0.545150000000     0.412370000000     0.0381108  
H55      H      0.527240000000     0.623500000000     0.399520000000     0.0582086  
H56      H      0.771810000000     0.662280000000     0.974660000000     0.0534149  
H57      H      0.663790000000     0.468210000000     0.948220000000     0.053614   
H58      H      0.618790000000     0.680590000000     0.930000000000     0.0371173  
H59      H      0.701730000000     0.430680000000     0.980620000000     0.0247899  
H60      H      0.461370000000     0.711520000000     0.381350000000     0.0415809  
H61      H      0.660860000000     0.803920000000     0.237680000000     0.0245378  
H62      H      0.672550000000     0.462160000000     0.091700000000     0.0212904  
H63      H      0.682480000000     0.729060000000     0.168350000000     0.0370404  
H64      H      0.662910000000     0.512980000000     0.172060000000     0.0376289  
H65      H      0.630850000000     0.495640000000     0.123860000000     0.0543434  
H66      H      0.625340000000     0.550050000000     0.204890000000     0.0365292  
H67      H      0.818010000000     0.657280000000     0.136350000000     0.0591883  
H68      H      0.699900000000     0.767070000000     0.205860000000     0.0524662  
H69      H      0.549020000000     0.571770000000     0.219170000000     0.0519861  
H70      H      0.723730000000     0.692970000000     0.136460000000     0.0379254  
H71      H      0.514120000000     0.610220000000     0.251890000000     0.0208874  
H72      H      0.927610000000     0.623220000000     0.114110000000     0.0462876  
H73      H      0.314170000000     0.608070000000     0.838510000000     0.022099   
H74      H      0.981920000000     0.609350000000     0.489060000000     0.0220041  
H75      H      0.258900000000     0.594620000000     0.919970000000     0.0378056  
H76      H      0.076850000000     0.635970000000     0.419310000000     0.0363997  
H77      H      0.058160000000     0.648980000000     0.457730000000     0.052949   
H78      H      0.154560000000     0.676560000000     0.887560000000     0.0377834  
H79      H      0.082380000000     0.483380000000     0.464520000000     0.0573811  
H80      H      0.238290000000     0.567790000000     0.870770000000     0.0542399  
H81      H      0.290460000000     0.762810000000     0.888440000000     0.0531546  
H82      H      0.184220000000     0.557570000000     0.452700000000     0.0358449  
H83      H      0.367520000000     0.801960000000     0.856630000000     0.0201864  
H84      H      0.040730000000     0.424720000000     0.519080000000     0.0366956  
H85      H      0.302310000000     0.753200000000     0.757440000000     0.021379   
H86      H      0.947060000000     0.440660000000     0.614390000000     0.0261733  
H87      H      0.288280000000     0.664120000000     0.662770000000     0.0380652  
H88      H      0.055980000000     0.565930000000     0.679340000000     0.0372898  
H89      H      0.021080000000     0.476700000000     0.646750000000     0.0540451  
H90      H      0.132550000000     0.603250000000     0.711760000000     0.0375618  
H91      H      0.131910000000     0.661660000000     0.614100000000     0.0584699  
H92      H      0.225770000000     0.715720000000     0.725510000000     0.0533536  
H93      H      0.311270000000     0.608830000000     0.697970000000     0.0535258  
H94      H      0.211800000000     0.627500000000     0.630360000000     0.0369611  
H95      H      0.386610000000     0.646160000000     0.730320000000     0.024807   
H96      H      0.104020000000     0.640390000000     0.556470000000     0.0391222  
H97      H      0.825010000000     0.271250000000     0.593700000000     0.0206962  
H98      H      0.487000000000     0.931050000000     0.741630000000     0.0217819  
H99      H      0.777460000000     0.215790000000     0.673910000000     0.0377322  
H100     H      0.554020000000     0.033150000000     0.672750000000     0.0364733  
H101     H      0.522920000000     0.010900000000     0.711310000000     0.0532703  
H102     H      0.591740000000     0.112520000000     0.641360000000     0.0378046  
H103     H      0.711980000000     0.035470000000     0.716170000000     0.057574   
H104     H      0.787520000000     0.197330000000     0.626620000000     0.053778   
H105     H      0.640520000000     0.245560000000     0.639620000000     0.0534414  
H106     H      0.739300000000     0.139320000000     0.706220000000     0.0361633  
H107     H      0.680170000000     0.320780000000     0.606990000000     0.0217599  
H108     H      0.730190000000     0.987750000000     0.769500000000     0.0372699  
H109     H      0.665680000000     0.266840000000     0.502950000000     0.0206686  
H110     H      0.656840000000     0.917000000000     0.855970000000     0.022986   
H111     H      0.602600000000     0.090850000000     0.457730000000     0.0364155  
H112     H      0.743630000000     0.128450000000     0.889490000000     0.0376774  
H113     H      0.697280000000     0.991790000000     0.888310000000     0.0545595  
H114     H      0.782120000000     0.206240000000     0.921390000000     0.0370857  
H115     H      0.550150000000     0.039700000000     0.877150000000     0.0591368  
H116     H      0.626580000000     0.191010000000     0.470930000000     0.052039   
H117     H      0.818970000000     0.227880000000     0.459040000000     0.05253    
H118     H      0.563350000000     0.016040000000     0.424910000000     0.0373639  
H119     H      0.856660000000     0.306360000000     0.490110000000     0.0244214  
H120     H      0.428530000000     0.917160000000     0.850230000000     0.0360706  
H121     H      0.809860000000     0.623660000000     0.506630000000     0.0217464  
H122     H      0.664810000000     0.734280000000     0.831810000000     0.0221121  
H123     H      0.659490000000     0.643170000000     0.461950000000     0.037627   
H124     H      0.675900000000     0.583230000000     0.880360000000     0.037326   
H125     H      0.705860000000     0.697300000000     0.863040000000     0.0540438  
H126     H      0.716000000000     0.545150000000     0.912370000000     0.0381108  
H127     H      0.527240000000     0.623500000000     0.899520000000     0.0582102  
H128     H      0.771810000000     0.662280000000     0.474660000000     0.0534021  
H129     H      0.663790000000     0.468210000000     0.448220000000     0.0536105  
H130     H      0.618790000000     0.680590000000     0.430000000000     0.0371142  
H131     H      0.701730000000     0.430680000000     0.480620000000     0.0247802  
H132     H      0.461370000000     0.711520000000     0.881350000000     0.0415843  
H133     H      0.660860000000     0.803920000000     0.737680000000     0.0245342  
H134     H      0.672550000000     0.462160000000     0.591700000000     0.0212926  
H135     H      0.682480000000     0.729060000000     0.668350000000     0.037036   
H136     H      0.662910000000     0.512980000000     0.672060000000     0.0376319  
H137     H      0.630850000000     0.495640000000     0.623860000000     0.0543445  
H138     H      0.625340000000     0.550050000000     0.704890000000     0.0365222  
H139     H      0.818010000000     0.657280000000     0.636350000000     0.0591882  
H140     H      0.699900000000     0.767070000000     0.705860000000     0.0524711  
H141     H      0.549020000000     0.571770000000     0.719170000000     0.0519916  
H142     H      0.723730000000     0.692970000000     0.636460000000     0.0379306  
H143     H      0.514120000000     0.610220000000     0.751890000000     0.0208909  
H144     H      0.927610000000     0.623220000000     0.614110000000     0.0462865  
N1       N      0.989430000000     0.525070000000     0.995940000000    -0.218473   
N2       N      0.346320000000     0.707950000000     0.345180000000    -0.216588   
N3       N      0.995590000000     0.529850000000     0.095230000000    -0.218837   
N4       N      0.349840000000     0.702190000000     0.246280000000    -0.215984   
N5       N      0.578530000000     0.938440000000     0.247480000000    -0.218913   
N6       N      0.755160000000     0.301170000000     0.097870000000    -0.217234   
N7       N      0.580480000000     0.935210000000     0.347150000000    -0.218166   
N8       N      0.763990000000     0.292290000000     0.998870000000    -0.216407   
N9       N      0.571700000000     0.699590000000     0.347060000000    -0.219075   
N10      N      0.758270000000     0.524340000000     0.996050000000    -0.216308   
N11      N      0.769910000000     0.539430000000     0.095270000000    -0.217856   
N12      N      0.584820000000     0.709830000000     0.247200000000    -0.215712   
N13      N      0.989430000000     0.525070000000     0.495940000000    -0.21849    
N14      N      0.346320000000     0.707950000000     0.845180000000    -0.216586   
N15      N      0.995590000000     0.529850000000     0.595230000000    -0.218838   
N16      N      0.349840000000     0.702190000000     0.746280000000    -0.215982   
N17      N      0.578530000000     0.938440000000     0.747480000000    -0.218843   
N18      N      0.755160000000     0.301170000000     0.597870000000    -0.217252   
N19      N      0.580480000000     0.935210000000     0.847150000000    -0.218095   
N20      N      0.763990000000     0.292290000000     0.498870000000    -0.216423   
N21      N      0.571700000000     0.699590000000     0.847060000000    -0.219075   
N22      N      0.758270000000     0.524340000000     0.496050000000    -0.216324   
N23      N      0.769910000000     0.539430000000     0.595270000000    -0.217858   
N24      N      0.584820000000     0.709830000000     0.747200000000    -0.215752   
O1       O      0.592760000000     0.892260000000     0.280480000000    -0.49404    
O2       O      0.492110000000     0.698040000000     0.324700000000    -0.500632   
O3       O      0.496170000000     0.858300000000     0.268280000000    -0.501749   
O4       O      0.522080000000     0.891940000000     0.313500000000    -0.49351    
O5       O      0.586580000000     0.790710000000     0.268920000000    -0.501945   
O6       O      0.391910000000     0.691860000000     0.312630000000    -0.495657   
O7       O      0.502230000000     0.782070000000     0.296530000000    -0.875137   
O8       O      0.429070000000     0.700510000000     0.267580000000    -0.502115   
O9       O      0.393610000000     0.763060000000     0.279200000000    -0.496862   
O10      O      0.583120000000     0.855870000000     0.325590000000    -0.501805   
O11      O      0.426610000000     0.789930000000     0.324400000000    -0.50472    
O12      O      0.522100000000     0.691990000000     0.279580000000    -0.495565   
O13      O      0.590110000000     0.760460000000     0.313930000000    -0.49731    
O14      O      0.819470000000     0.542000000000     0.028800000000    -0.497951   
O15      O      0.912500000000     0.446700000000     0.075660000000    -0.502346   
O16      O      0.756800000000     0.443560000000     0.017740000000    -0.502608   
O17      O      0.751010000000     0.475190000000     0.062950000000    -0.491829   
O18      O      0.912040000000     0.530940000000     0.017120000000    -0.501437   
O19      O      0.817880000000     0.343450000000     0.065410000000    -0.501342   
O20      O      0.838180000000     0.451550000000     0.046520000000    -0.875016   
O21      O      0.845080000000     0.372140000000     0.020010000000    -0.504293   
O22      O      0.747320000000     0.341380000000     0.030310000000    -0.497358   
O23      O      0.849270000000     0.537800000000     0.073660000000    -0.500681   
O24      O      0.754160000000     0.379000000000     0.075130000000    -0.504998   
O25      O      0.946210000000     0.468490000000     0.029940000000    -0.493807   
O26      O      0.949720000000     0.542630000000     0.061840000000    -0.494389   
O27      O      0.592760000000     0.892260000000     0.780480000000    -0.494246   
O28      O      0.492110000000     0.698040000000     0.824700000000    -0.500633   
O29      O      0.496170000000     0.858300000000     0.768280000000    -0.501834   
O30      O      0.522080000000     0.891940000000     0.813500000000    -0.49372    
O31      O      0.586580000000     0.790710000000     0.768920000000    -0.502017   
O32      O      0.391910000000     0.691860000000     0.812630000000    -0.495644   
O33      O      0.502230000000     0.782070000000     0.796530000000    -0.875142   
O34      O      0.429070000000     0.700510000000     0.767580000000    -0.502089   
O35      O      0.393610000000     0.763060000000     0.779200000000    -0.49686    
O36      O      0.583120000000     0.855870000000     0.825590000000    -0.501895   
O37      O      0.426610000000     0.789930000000     0.824400000000    -0.504714   
O38      O      0.522100000000     0.691990000000     0.779570000000    -0.495637   
O39      O      0.590110000000     0.760460000000     0.813930000000    -0.497331   
O40      O      0.819470000000     0.542000000000     0.528800000000    -0.497962   
O41      O      0.912500000000     0.446700000000     0.575660000000    -0.502349   
O42      O      0.756800000000     0.443560000000     0.517740000000    -0.502648   
O43      O      0.751010000000     0.475190000000     0.562950000000    -0.491854   
O44      O      0.912040000000     0.530940000000     0.517120000000    -0.501436   
O45      O      0.817880000000     0.343450000000     0.565410000000    -0.50134    
O46      O      0.838180000000     0.451550000000     0.546520000000    -0.875054   
O47      O      0.845080000000     0.372140000000     0.520010000000    -0.504297   
O48      O      0.747320000000     0.341380000000     0.530310000000    -0.497376   
O49      O      0.849270000000     0.537800000000     0.573660000000    -0.500687   
O50      O      0.754160000000     0.379000000000     0.575120000000    -0.50519    
O51      O      0.946210000000     0.468490000000     0.529940000000    -0.493815   
O52      O      0.949720000000     0.542630000000     0.561840000000    -0.49439    
S1       S      0.000050000000     0.415120000000     0.000880000000    -0.0500899  
S2       S      0.066460000000     0.648240000000     0.072560000000    -0.0490813  
S3       S      0.698470000000     0.948730000000     0.250920000000    -0.0501365  
S4       S      0.482560000000     0.963100000000     0.339230000000    -0.0491583  
S5       S      0.456410000000     0.658190000000     0.370530000000    -0.039288   
S6       S      0.892770000000     0.644530000000     0.101980000000    -0.0489514  
S7       S      0.000050000000     0.415120000000     0.500880000000    -0.0500292  
S8       S      0.066460000000     0.648240000000     0.572560000000    -0.0490729  
S9       S      0.698470000000     0.948730000000     0.750920000000    -0.0501205  
S10      S      0.482560000000     0.963100000000     0.839230000000    -0.0491481  
S11      S      0.456410000000     0.658190000000     0.870530000000    -0.0392861  
S12      S      0.892770000000     0.644530000000     0.601980000000    -0.0489468  


