data_structure

_audit_creation_method RASPA-1.0
_audit_creation_date 2023-6-4
_audit_author_name 'Poobodin Mano'

_cell_length_a    24.4553
_cell_length_b    23.9967
_cell_length_c    56.9741
_cell_angle_alpha 90
_cell_angle_beta  90
_cell_angle_gamma 120
_cell_volume      28955.6

_symmetry_cell_setting          triclinic
_symmetry_space_group_name_Hall 'P 1'
_symmetry_space_group_name_H-M  'P 1'
_symmetry_Int_Tables_number     1

_symmetry_equiv_pos_as_xyz 'x,y,z'

loop_
_atom_site_label
_atom_site_type_symbol
_atom_site_fract_x
_atom_site_fract_y
_atom_site_fract_z
_atom_site_charge
C1       C      0.550490000000     0.727320000000     0.267540000000     0.526411   
C2       C      0.540410000000     0.717760000000     0.330560000000     0.526383   
C3       C      0.380130000000     0.729110000000     0.329990000000     0.526771   
C4       C      0.542410000000     0.891860000000     0.267340000000     0.526817   
C5       C      0.550520000000     0.891190000000     0.330360000000     0.526979   
C6       C      0.381140000000     0.718260000000     0.267150000000     0.527225   
C7       C      0.782020000000     0.514980000000     0.080130000000     0.524962   
C8       C      0.771900000000     0.503540000000     0.017040000000     0.527388   
C9       C      0.779910000000     0.339260000000     0.017690000000     0.524666   
C10      C      0.940900000000     0.503890000000     0.080280000000     0.527574   
C11      C      0.940310000000     0.510790000000     0.017030000000     0.527804   
C12      C      0.771530000000     0.341460000000     0.080810000000     0.528214   
C13      C      0.277040000000     0.723990000000     0.378480000000    -0.0994823  
C14      C      0.016810000000     0.500780000000     0.994470000000     0.0837794  
C15      C      0.988920000000     0.578950000000     0.984080000000     0.0810813  
C16      C      0.058650000000     0.519100000000     0.975580000000    -0.0948611  
C17      C      0.168360000000     0.587460000000     0.942270000000    -0.0338961  
C18      C      0.211300000000     0.608120000000     0.923640000000    -0.0344657  
C19      C      0.112410000000     0.590590000000     0.940740000000    -0.00677941 
C20      C      0.031420000000     0.599500000000     0.965350000000    -0.0957124  
C21      C      0.199900000000     0.633610000000     0.403320000000    -0.0078159  
C22      C      0.261420000000     0.618230000000     0.371610000000    -0.096225   
C23      C      0.144430000000     0.636890000000     0.401600000000    -0.034834   
C24      C      0.305250000000     0.643080000000     0.353340000000     0.0817524  
C25      C      0.322000000000     0.748230000000     0.360450000000     0.0950909  
C26      C      0.100760000000     0.614920000000     0.419980000000    -0.0339609  
C27      C      0.349330000000     0.816090000000     0.355270000000     0.038594   
C28      C      0.066890000000     0.569380000000     0.960740000000     0.0530463  
C29      C      0.246850000000     0.658840000000     0.384220000000     0.0555721  
C30      C      0.281000000000     0.622500000000     0.217370000000    -0.0979697  
C31      C      0.019680000000     0.591040000000     0.102560000000     0.0835189  
C32      C      0.990400000000     0.483630000000     0.112530000000     0.0812384  
C33      C      0.063010000000     0.614440000000     0.121040000000    -0.0963321  
C34      C      0.110530000000     0.626890000000     0.173640000000    -0.03481    
C35      C      0.153810000000     0.647220000000     0.192160000000    -0.033635   
C36      C      0.117770000000     0.595120000000     0.154290000000    -0.00752614 
C37      C      0.034400000000     0.505500000000     0.130760000000    -0.0975371  
C38      C      0.205990000000     0.637360000000     0.191440000000    -0.00719344 
C39      C      0.266130000000     0.712540000000     0.224680000000    -0.0947217  
C40      C      0.213560000000     0.606740000000     0.171600000000    -0.0338544  
C41      C      0.308390000000     0.730400000000     0.243400000000     0.081854   
C42      C      0.324380000000     0.642170000000     0.235910000000     0.0950355  
C43      C      0.169480000000     0.585160000000     0.153380000000    -0.0350426  
C44      C      0.350230000000     0.600870000000     0.241200000000     0.0384344  
C45      C      0.070950000000     0.571430000000     0.135160000000     0.0539881  
C46      C      0.251740000000     0.657930000000     0.211340000000     0.0546159  
C47      C      0.551120000000     0.999110000000     0.219110000000    -0.100001   
C48      C      0.779800000000     0.263640000000     0.104030000000     0.0819346  
C49      C      0.702110000000     0.291780000000     0.113100000000     0.0805905  
C50      C      0.760060000000     0.220600000000     0.122840000000    -0.09673    
C51      C      0.689500000000     0.107850000000     0.155500000000    -0.0344707  
C52      C      0.667440000000     0.063660000000     0.174000000000    -0.0346867  
C53      C      0.686560000000     0.164980000000     0.156780000000    -0.00722571 
C54      C      0.680240000000     0.248120000000     0.131720000000    -0.0962157  
C55      C      0.640760000000     0.074940000000     0.193920000000    -0.00842304 
C56      C      0.652890000000     0.009090000000     0.225160000000    -0.0987914  
C57      C      0.637670000000     0.131600000000     0.195360000000    -0.0347536  
C58      C      0.627460000000     0.964650000000     0.243450000000     0.081314   
C59      C      0.526230000000     0.953500000000     0.237170000000     0.0953088  
C60      C      0.660970000000     0.176500000000     0.177130000000    -0.0342796  
C61      C      0.460550000000     0.929420000000     0.243030000000     0.0371813  
C62      C      0.709310000000     0.211840000000     0.136930000000     0.0528003  
C63      C      0.614630000000     0.026900000000     0.212950000000     0.0558056  
C64      C      0.771290000000     0.233680000000     0.968770000000    -0.0998857  
C65      C      0.543920000000     0.971230000000     0.352890000000     0.0834136  
C66      C      0.619150000000     0.940480000000     0.362880000000     0.0808739  
C67      C      0.563620000000     0.014400000000     0.371690000000    -0.0941817  
C68      C      0.633950000000     0.126170000000     0.404950000000    -0.0343371  
C69      C      0.656020000000     0.170090000000     0.423560000000    -0.0343926  
C70      C      0.635570000000     0.068330000000     0.406280000000    -0.0065158  
C71      C      0.640990000000     0.984210000000     0.381480000000    -0.0955058  
C72      C      0.681410000000     0.157830000000     0.943640000000    -0.00839444 
C73      C      0.669260000000     0.222520000000     0.975360000000    -0.0985934  
C74      C      0.683150000000     0.100450000000     0.945140000000    -0.0347226  
C75      C      0.694720000000     0.266500000000     0.993810000000     0.0808153  
C76      C      0.796230000000     0.278900000000     0.986990000000     0.0945285  
C77      C      0.659800000000     0.055830000000     0.926810000000    -0.0342118  
C78      C      0.862330000000     0.303990000000     0.992410000000     0.0371883  
C79      C      0.613020000000     0.021740000000     0.386290000000     0.0526897  
C80      C      0.707620000000     0.205510000000     0.962810000000     0.0554913  
C81      C      0.546720000000     0.620310000000     0.379660000000    -0.0985315  
C82      C      0.779850000000     0.589900000000     0.993920000000     0.0818154  
C83      C      0.700380000000     0.482630000000     0.985480000000     0.0804672  
C84      C      0.758980000000     0.612860000000     0.975460000000    -0.098143   
C85      C      0.721900000000     0.627540000000     0.924090000000    -0.0352109  
C86      C      0.698450000000     0.648080000000     0.405680000000    -0.0342431  
C87      C      0.682850000000     0.593230000000     0.943010000000    -0.00800462 
C88      C      0.677350000000     0.504130000000     0.967280000000    -0.0978987  
C89      C      0.635790000000     0.635920000000     0.406070000000    -0.00777466 
C90      C      0.648990000000     0.713130000000     0.373640000000    -0.0972419  
C91      C      0.597410000000     0.602650000000     0.425440000000    -0.0342005  
C92      C      0.624420000000     0.731290000000     0.354950000000     0.0810276  
C93      C      0.522750000000     0.640250000000     0.361150000000     0.0950102  
C94      C      0.620480000000     0.580890000000     0.943540000000    -0.0350501  
C95      C      0.457250000000     0.597490000000     0.354980000000     0.0370359  
C96      C      0.706860000000     0.569790000000     0.962130000000     0.0536948  
C97      C      0.610230000000     0.656920000000     0.386280000000     0.0544841  
C98      C      0.775910000000     0.611070000000     0.129850000000    -0.0982627  
C99      C      0.544070000000     0.640360000000     0.245140000000     0.0832401  
C100     C      0.621190000000     0.747780000000     0.235700000000     0.0806435  
C101     C      0.564870000000     0.617180000000     0.226710000000    -0.0956029  
C102     C      0.600530000000     0.603090000000     0.174670000000    -0.0352773  
C103     C      0.623970000000     0.583110000000     0.156060000000    -0.0338867  
C104     C      0.639560000000     0.636820000000     0.193660000000    -0.00732552 
C105     C      0.644180000000     0.726110000000     0.217540000000    -0.0971626  
C106     C      0.686650000000     0.595210000000     0.156320000000    -0.00778316 
C107     C      0.673310000000     0.519290000000     0.123320000000    -0.0969825  
C108     C      0.724980000000     0.627830000000     0.175780000000    -0.0340363  
C109     C      0.697870000000     0.501560000000     0.104490000000     0.0804469  
C110     C      0.799880000000     0.591500000000     0.111210000000     0.0941743  
C111     C      0.701910000000     0.649080000000     0.194080000000    -0.0353572  
C112     C      0.865830000000     0.633550000000     0.105470000000     0.0369495  
C113     C      0.615750000000     0.660280000000     0.212860000000     0.0534034  
C114     C      0.712220000000     0.574770000000     0.136310000000     0.0540694  
C115     C      0.550490000000     0.727320000000     0.767540000000     0.526421   
C116     C      0.540410000000     0.717760000000     0.830560000000     0.526466   
C117     C      0.380130000000     0.729110000000     0.829990000000     0.526783   
C118     C      0.542410000000     0.891860000000     0.767340000000     0.526818   
C119     C      0.550520000000     0.891190000000     0.830360000000     0.526981   
C120     C      0.381140000000     0.718260000000     0.767150000000     0.52724    
C121     C      0.782020000000     0.514980000000     0.580130000000     0.524964   
C122     C      0.771900000000     0.503540000000     0.517040000000     0.527437   
C123     C      0.779910000000     0.339260000000     0.517690000000     0.524718   
C124     C      0.940900000000     0.503890000000     0.580280000000     0.527575   
C125     C      0.940310000000     0.510790000000     0.517030000000     0.527852   
C126     C      0.771530000000     0.341460000000     0.580810000000     0.528216   
C127     C      0.277040000000     0.723990000000     0.878480000000    -0.0994805  
C128     C      0.016810000000     0.500780000000     0.494470000000     0.0836926  
C129     C      0.988920000000     0.578950000000     0.484080000000     0.0810667  
C130     C      0.058650000000     0.519100000000     0.475580000000    -0.0948226  
C131     C      0.168360000000     0.587460000000     0.442270000000    -0.033926   
C132     C      0.211300000000     0.608120000000     0.423640000000    -0.0344533  
C133     C      0.112410000000     0.590590000000     0.440730000000    -0.00673315 
C134     C      0.031420000000     0.599500000000     0.465350000000    -0.0956973  
C135     C      0.199900000000     0.633610000000     0.903320000000    -0.00780519 
C136     C      0.261420000000     0.618230000000     0.871610000000    -0.0962238  
C137     C      0.144430000000     0.636890000000     0.901600000000    -0.034846   
C138     C      0.305250000000     0.643080000000     0.853340000000     0.0817516  
C139     C      0.322000000000     0.748230000000     0.860450000000     0.0950904  
C140     C      0.100760000000     0.614920000000     0.919980000000    -0.0339354  
C141     C      0.349330000000     0.816090000000     0.855270000000     0.0385941  
C142     C      0.066890000000     0.569380000000     0.460740000000     0.0530063  
C143     C      0.246850000000     0.658840000000     0.884220000000     0.0555688  
C144     C      0.281000000000     0.622500000000     0.717370000000    -0.0979601  
C145     C      0.019680000000     0.591040000000     0.602560000000     0.0835212  
C146     C      0.990400000000     0.483630000000     0.612530000000     0.0812405  
C147     C      0.063010000000     0.614440000000     0.621040000000    -0.0963326  
C148     C      0.110530000000     0.626890000000     0.673640000000    -0.0347971  
C149     C      0.153810000000     0.647220000000     0.692160000000    -0.0336608  
C150     C      0.117770000000     0.595120000000     0.654290000000    -0.00753501 
C151     C      0.034400000000     0.505500000000     0.630760000000    -0.0975383  
C152     C      0.205990000000     0.637360000000     0.691430000000    -0.00715007 
C153     C      0.266130000000     0.712540000000     0.724680000000    -0.0947117  
C154     C      0.213560000000     0.606740000000     0.671600000000    -0.0338762  
C155     C      0.308390000000     0.730400000000     0.743400000000     0.0818501  
C156     C      0.324380000000     0.642170000000     0.735910000000     0.0950326  
C157     C      0.169480000000     0.585160000000     0.653380000000    -0.0350302  
C158     C      0.350230000000     0.600870000000     0.741200000000     0.0384348  
C159     C      0.070950000000     0.571430000000     0.635160000000     0.0539925  
C160     C      0.251740000000     0.657930000000     0.711340000000     0.0545919  
C161     C      0.551120000000     0.999110000000     0.719110000000    -0.100001   
C162     C      0.779800000000     0.263640000000     0.604030000000     0.0819367  
C163     C      0.702110000000     0.291780000000     0.613100000000     0.0805921  
C164     C      0.760060000000     0.220600000000     0.622840000000    -0.0967288  
C165     C      0.689500000000     0.107850000000     0.655500000000    -0.0344702  
C166     C      0.667440000000     0.063660000000     0.674000000000    -0.0346858  
C167     C      0.686560000000     0.164980000000     0.656780000000    -0.00722487 
C168     C      0.680240000000     0.248120000000     0.631720000000    -0.0962148  
C169     C      0.640760000000     0.074940000000     0.693920000000    -0.00842306 
C170     C      0.652890000000     0.009090000000     0.725160000000    -0.0987917  
C171     C      0.637670000000     0.131600000000     0.695360000000    -0.0347534  
C172     C      0.627460000000     0.964650000000     0.743450000000     0.0813139  
C173     C      0.526230000000     0.953500000000     0.737170000000     0.0953089  
C174     C      0.660970000000     0.176500000000     0.677130000000    -0.0342796  
C175     C      0.460550000000     0.929420000000     0.743030000000     0.0371812  
C176     C      0.709310000000     0.211840000000     0.636930000000     0.0528012  
C177     C      0.614630000000     0.026900000000     0.712950000000     0.0558059  
C178     C      0.771290000000     0.233680000000     0.468770000000    -0.0998916  
C179     C      0.543920000000     0.971230000000     0.852890000000     0.0834242  
C180     C      0.619150000000     0.940480000000     0.862880000000     0.0809007  
C181     C      0.563620000000     0.014400000000     0.871690000000    -0.0942039  
C182     C      0.633950000000     0.126170000000     0.904950000000    -0.0343055  
C183     C      0.656020000000     0.170090000000     0.923560000000    -0.0344074  
C184     C      0.635570000000     0.068330000000     0.906270000000    -0.00656867 
C185     C      0.640990000000     0.984210000000     0.881480000000    -0.0955785  
C186     C      0.681410000000     0.157830000000     0.443640000000    -0.00840784 
C187     C      0.669260000000     0.222520000000     0.475360000000    -0.0986193  
C188     C      0.683150000000     0.100450000000     0.445140000000    -0.0347148  
C189     C      0.694720000000     0.266500000000     0.493800000000     0.0807616  
C190     C      0.796230000000     0.278900000000     0.486990000000     0.0945214  
C191     C      0.659800000000     0.055830000000     0.426810000000    -0.0342343  
C192     C      0.862330000000     0.303990000000     0.492410000000     0.0371675  
C193     C      0.613020000000     0.021740000000     0.886290000000     0.0527409  
C194     C      0.707620000000     0.205510000000     0.462810000000     0.0554991  
C195     C      0.546720000000     0.620310000000     0.879660000000    -0.0985331  
C196     C      0.779850000000     0.589900000000     0.493920000000     0.0817288  
C197     C      0.700380000000     0.482630000000     0.485470000000     0.0804381  
C198     C      0.758980000000     0.612860000000     0.475460000000    -0.098114   
C199     C      0.721900000000     0.627540000000     0.424100000000    -0.035219   
C200     C      0.698450000000     0.648080000000     0.905680000000    -0.0342315  
C201     C      0.682850000000     0.593230000000     0.443010000000    -0.00798672 
C202     C      0.677350000000     0.504130000000     0.467280000000    -0.097914   
C203     C      0.635790000000     0.635920000000     0.906070000000    -0.00777776 
C204     C      0.648990000000     0.713130000000     0.873640000000    -0.0972448  
C205     C      0.597410000000     0.602650000000     0.925440000000    -0.0342006  
C206     C      0.624420000000     0.731290000000     0.854950000000     0.0810316  
C207     C      0.522750000000     0.640250000000     0.861150000000     0.09501    
C208     C      0.620480000000     0.580890000000     0.443540000000    -0.0350595  
C209     C      0.457250000000     0.597490000000     0.854980000000     0.0370314  
C210     C      0.706860000000     0.569790000000     0.462130000000     0.0536822  
C211     C      0.610230000000     0.656920000000     0.886280000000     0.054487   
C212     C      0.775910000000     0.611070000000     0.629850000000    -0.0982619  
C213     C      0.544070000000     0.640360000000     0.745140000000     0.0832412  
C214     C      0.621190000000     0.747780000000     0.735700000000     0.0806441  
C215     C      0.564870000000     0.617180000000     0.726710000000    -0.0956035  
C216     C      0.600530000000     0.603090000000     0.674670000000    -0.0352764  
C217     C      0.623970000000     0.583110000000     0.656060000000    -0.0338861  
C218     C      0.639560000000     0.636820000000     0.693660000000    -0.0073256  
C219     C      0.644180000000     0.726110000000     0.717540000000    -0.0971629  
C220     C      0.686650000000     0.595210000000     0.656320000000    -0.00778232 
C221     C      0.673310000000     0.519290000000     0.623320000000    -0.0969813  
C222     C      0.724980000000     0.627830000000     0.675780000000    -0.0340363  
C223     C      0.697870000000     0.501560000000     0.604490000000     0.0804489  
C224     C      0.799880000000     0.591500000000     0.611210000000     0.0941756  
C225     C      0.701910000000     0.649080000000     0.694080000000    -0.0353569  
C226     C      0.865830000000     0.633550000000     0.605470000000     0.0369524  
C227     C      0.615750000000     0.660280000000     0.712860000000     0.053404   
C228     C      0.712220000000     0.574770000000     0.636310000000     0.0540702  
Fe1      Fe     0.451350000000     0.699100000000     0.298930000000     1.36485    
Fe2      Fe     0.452160000000     0.819850000000     0.298550000000     1.36602    
Fe3      Fe     0.569870000000     0.819060000000     0.298970000000     1.35584    
Fe4      Fe     0.752240000000     0.412690000000     0.048960000000     1.35454    
Fe5      Fe     0.869920000000     0.411740000000     0.049070000000     1.36199    
Fe6      Fe     0.870980000000     0.532620000000     0.048430000000     1.36012    
Fe7      Fe     0.451350000000     0.699100000000     0.798930000000     1.36511    
Fe8      Fe     0.452160000000     0.819850000000     0.798550000000     1.36602    
Fe9      Fe     0.569870000000     0.819060000000     0.798970000000     1.35586    
Fe10     Fe     0.752240000000     0.412690000000     0.548960000000     1.35455    
Fe11     Fe     0.869920000000     0.411740000000     0.549070000000     1.362      
Fe12     Fe     0.870980000000     0.532620000000     0.548430000000     1.36013    
H1       H      0.962430000000     0.603540000000     0.986930000000     0.024034   
H2       H      0.314740000000     0.609520000000     0.343970000000     0.032286   
H3       H      0.057760000000     0.616800000000     0.417780000000     0.0382725  
H4       H      0.254250000000     0.605800000000     0.925330000000     0.0409586  
H5       H      0.238460000000     0.567340000000     0.375650000000     0.0585443  
H6       H      0.179920000000     0.570350000000     0.958030000000     0.0384141  
H7       H      0.265690000000     0.755900000000     0.388140000000     0.0601696  
H8       H      0.036850000000     0.639490000000     0.954810000000     0.0536103  
H9       H      0.083730000000     0.493240000000     0.972580000000     0.0562638  
H10      H      0.134740000000     0.656130000000     0.385950000000     0.0402647  
H11      H      0.012220000000     0.461880000000     0.005510000000     0.0296002  
H12      H      0.962630000000     0.432090000000     0.109740000000     0.0241553  
H13      H      0.317780000000     0.773210000000     0.253060000000     0.0323159  
H14      H      0.176060000000     0.561190000000     0.138440000000     0.0396849  
H15      H      0.145490000000     0.669480000000     0.207220000000     0.0387093  
H16      H      0.245620000000     0.742240000000     0.220580000000     0.0568397  
H17      H      0.070580000000     0.634630000000     0.174660000000     0.0409868  
H18      H      0.269260000000     0.578610000000     0.207970000000     0.0581898  
H19      H      0.039480000000     0.471070000000     0.141490000000     0.0557707  
H20      H      0.090850000000     0.665840000000     0.124040000000     0.0579235  
H21      H      0.253760000000     0.599640000000     0.170000000000     0.0389087  
H22      H      0.015290000000     0.625850000000     0.091790000000     0.0296953  
H23      H      0.678210000000     0.318770000000     0.109740000000     0.0229783  
H24      H      0.659060000000     0.952280000000     0.252440000000     0.0220056  
H25      H      0.659160000000     0.220400000000     0.179140000000     0.0382401  
H26      H      0.669720000000     0.019860000000     0.172500000000     0.0394529  
H27      H      0.702440000000     0.030050000000     0.220790000000     0.055284   
H28      H      0.707610000000     0.096380000000     0.140030000000     0.0378722  
H29      H      0.521030000000     0.012950000000     0.209770000000     0.0601085  
H30      H      0.640050000000     0.242360000000     0.141690000000     0.0536064  
H31      H      0.785160000000     0.195010000000     0.126380000000     0.0536734  
H32      H      0.617650000000     0.141340000000     0.210720000000     0.0400457  
H33      H      0.819210000000     0.268820000000     0.093630000000     0.0224894  
H34      H      0.642120000000     0.912400000000     0.359930000000     0.0234672  
H35      H      0.662950000000     0.278150000000     0.003050000000     0.0221294  
H36      H      0.660520000000     0.011370000000     0.928880000000     0.0383871  
H37      H      0.654750000000     0.214440000000     0.422020000000     0.0397509  
H38      H      0.619580000000     0.201270000000     0.971140000000     0.0554724  
H39      H      0.616890000000     0.138420000000     0.389370000000     0.0385048  
H40      H      0.801490000000     0.220510000000     0.959150000000     0.059911   
H41      H      0.680270000000     0.988900000000     0.391780000000     0.0534725  
H42      H      0.539490000000     0.041160000000     0.374820000000     0.0563503  
H43      H      0.702150000000     0.089940000000     0.960610000000     0.0398805  
H44      H      0.505790000000     0.967380000000     0.342020000000     0.0310578  
H45      H      0.676420000000     0.431300000000     0.988870000000     0.0228695  
H46      H      0.656540000000     0.775600000000     0.345920000000     0.0218661  
H47      H      0.589820000000     0.555040000000     0.958150000000     0.0391332  
H48      H      0.729260000000     0.672390000000     0.390970000000     0.0375623  
H49      H      0.698150000000     0.743850000000     0.378270000000     0.0533725  
H50      H      0.770130000000     0.637180000000     0.923320000000     0.0390603  
H51      H      0.515830000000     0.575280000000     0.388500000000     0.0582465  
H52      H      0.637040000000     0.469580000000     0.957160000000     0.0550656  
H53      H      0.782760000000     0.664050000000     0.971880000000     0.0551775  
H54      H      0.549520000000     0.593680000000     0.426780000000     0.0385952  
H55      H      0.820090000000     0.624790000000     0.004010000000     0.0226095  
H56      H      0.644240000000     0.799270000000     0.238660000000     0.0233719  
H57      H      0.665540000000     0.457800000000     0.095210000000     0.0220959  
H58      H      0.732600000000     0.674570000000     0.208720000000     0.0393829  
H59      H      0.593140000000     0.559310000000     0.141300000000     0.0376738  
H60      H      0.624010000000     0.488740000000     0.127780000000     0.0534087  
H61      H      0.552330000000     0.593570000000     0.173970000000     0.0407242  
H62      H      0.807040000000     0.655520000000     0.138980000000     0.057837   
H63      H      0.683560000000     0.760690000000     0.207050000000     0.0550612  
H64      H      0.542000000000     0.565840000000     0.223530000000     0.0577655  
H65      H      0.772850000000     0.636730000000     0.177060000000     0.0385229  
H66      H      0.505030000000     0.605460000000     0.255690000000     0.031078   
H67      H      0.962430000000     0.603540000000     0.486930000000     0.0240207  
H68      H      0.314740000000     0.609520000000     0.843970000000     0.0322857  
H69      H      0.057760000000     0.616800000000     0.917780000000     0.0382675  
H70      H      0.254250000000     0.605800000000     0.425330000000     0.0409522  
H71      H      0.238460000000     0.567340000000     0.875650000000     0.0585443  
H72      H      0.179920000000     0.570350000000     0.458030000000     0.0384148  
H73      H      0.265690000000     0.755900000000     0.888140000000     0.0601709  
H74      H      0.036850000000     0.639490000000     0.454810000000     0.0536012  
H75      H      0.083730000000     0.493240000000     0.472580000000     0.0562436  
H76      H      0.134740000000     0.656130000000     0.885950000000     0.0402682  
H77      H      0.012220000000     0.461880000000     0.505520000000     0.0296764  
H78      H      0.962630000000     0.432090000000     0.609740000000     0.0241567  
H79      H      0.317780000000     0.773210000000     0.753060000000     0.0323164  
H80      H      0.176060000000     0.561190000000     0.638440000000     0.0396851  
H81      H      0.145490000000     0.669480000000     0.707220000000     0.0387152  
H82      H      0.245620000000     0.742240000000     0.720580000000     0.0568365  
H83      H      0.070580000000     0.634630000000     0.674660000000     0.0409835  
H84      H      0.269260000000     0.578610000000     0.707970000000     0.0581869  
H85      H      0.039480000000     0.471070000000     0.641490000000     0.0557721  
H86      H      0.090850000000     0.665840000000     0.624040000000     0.0579266  
H87      H      0.253760000000     0.599640000000     0.670000000000     0.0389156  
H88      H      0.015290000000     0.625850000000     0.591790000000     0.0296988  
H89      H      0.678210000000     0.318770000000     0.609740000000     0.0229801  
H90      H      0.659060000000     0.952280000000     0.752440000000     0.0220053  
H91      H      0.659160000000     0.220400000000     0.679140000000     0.0382401  
H92      H      0.669720000000     0.019860000000     0.672500000000     0.0394545  
H93      H      0.702440000000     0.030050000000     0.720790000000     0.055284   
H94      H      0.707610000000     0.096380000000     0.640030000000     0.0378753  
H95      H      0.521030000000     0.012950000000     0.709770000000     0.0601092  
H96      H      0.640050000000     0.242360000000     0.641690000000     0.0536076  
H97      H      0.785160000000     0.195010000000     0.626380000000     0.0536757  
H98      H      0.617650000000     0.141340000000     0.710720000000     0.0400454  
H99      H      0.819210000000     0.268820000000     0.593630000000     0.0224937  
H100     H      0.642120000000     0.912400000000     0.859930000000     0.0234576  
H101     H      0.662950000000     0.278150000000     0.503050000000     0.0221945  
H102     H      0.660520000000     0.011370000000     0.428890000000     0.0383853  
H103     H      0.654750000000     0.214440000000     0.922020000000     0.0397568  
H104     H      0.619580000000     0.201270000000     0.471140000000     0.0554682  
H105     H      0.616890000000     0.138420000000     0.889370000000     0.0384974  
H106     H      0.801490000000     0.220510000000     0.459150000000     0.0599096  
H107     H      0.680270000000     0.988900000000     0.891770000000     0.0535101  
H108     H      0.539490000000     0.041160000000     0.874820000000     0.0563577  
H109     H      0.702150000000     0.089940000000     0.460610000000     0.0398707  
H110     H      0.505790000000     0.967380000000     0.842020000000     0.0310551  
H111     H      0.676420000000     0.431300000000     0.488870000000     0.0228662  
H112     H      0.656540000000     0.775600000000     0.845920000000     0.021863   
H113     H      0.589820000000     0.555040000000     0.458150000000     0.0391297  
H114     H      0.729260000000     0.672390000000     0.890970000000     0.0375605  
H115     H      0.698150000000     0.743850000000     0.878270000000     0.0533739  
H116     H      0.770130000000     0.637180000000     0.423320000000     0.0390601  
H117     H      0.515830000000     0.575280000000     0.888500000000     0.058248   
H118     H      0.637040000000     0.469580000000     0.457160000000     0.0550642  
H119     H      0.782760000000     0.664050000000     0.471880000000     0.0551603  
H120     H      0.549520000000     0.593680000000     0.926780000000     0.0385983  
H121     H      0.820090000000     0.624790000000     0.504010000000     0.0226707  
H122     H      0.644240000000     0.799270000000     0.738660000000     0.0233716  
H123     H      0.665540000000     0.457800000000     0.595210000000     0.0220996  
H124     H      0.732600000000     0.674570000000     0.708720000000     0.0393827  
H125     H      0.593140000000     0.559310000000     0.641300000000     0.0376768  
H126     H      0.624010000000     0.488740000000     0.627780000000     0.0534108  
H127     H      0.552330000000     0.593570000000     0.673970000000     0.0407256  
H128     H      0.807040000000     0.655520000000     0.638980000000     0.0578382  
H129     H      0.683560000000     0.760690000000     0.707050000000     0.055062   
H130     H      0.542000000000     0.565840000000     0.723530000000     0.0577658  
H131     H      0.772850000000     0.636730000000     0.677060000000     0.0385229  
H132     H      0.505030000000     0.605460000000     0.755690000000     0.0310782  
N1       N      0.336170000000     0.707580000000     0.347830000000    -0.213887   
N2       N      0.981950000000     0.530220000000     0.998620000000    -0.215606   
N3       N      0.374310000000     0.879620000000     0.350510000000    -0.101331   
N4       N      0.338290000000     0.696490000000     0.248930000000    -0.213902   
N5       N      0.983530000000     0.526120000000     0.098390000000    -0.215592   
N6       N      0.373880000000     0.561680000000     0.246050000000    -0.101344   
N7       N      0.564610000000     0.936310000000     0.249410000000    -0.215117   
N8       N      0.751140000000     0.299050000000     0.099230000000    -0.216734   
N9       N      0.399130000000     0.907640000000     0.248460000000    -0.102295   
N10      N      0.757720000000     0.295200000000     0.999600000000    -0.214533   
N11      N      0.571170000000     0.934230000000     0.348610000000    -0.215235   
N12      N      0.924190000000     0.326940000000     0.997390000000    -0.102959   
N13      N      0.561780000000     0.695970000000     0.348780000000    -0.215016   
N14      N      0.750790000000     0.525270000000     0.998870000000    -0.216535   
N15      N      0.396000000000     0.556880000000     0.349270000000    -0.102182   
N16      N      0.760680000000     0.536520000000     0.098480000000    -0.214416   
N17      N      0.571830000000     0.705200000000     0.249540000000    -0.214988   
N18      N      0.927570000000     0.673330000000     0.100190000000    -0.102868   
N19      N      0.336170000000     0.707580000000     0.847830000000    -0.21389    
N20      N      0.981950000000     0.530220000000     0.498620000000    -0.215624   
N21      N      0.374310000000     0.879620000000     0.850510000000    -0.101331   
N22      N      0.338290000000     0.696490000000     0.748930000000    -0.213903   
N23      N      0.983530000000     0.526120000000     0.598390000000    -0.215592   
N24      N      0.373880000000     0.561680000000     0.746050000000    -0.101345   
N25      N      0.564610000000     0.936310000000     0.749410000000    -0.215118   
N26      N      0.751140000000     0.299050000000     0.599230000000    -0.216734   
N27      N      0.399130000000     0.907640000000     0.748460000000    -0.102295   
N28      N      0.757720000000     0.295200000000     0.499600000000    -0.214553   
N29      N      0.571170000000     0.934230000000     0.848610000000    -0.215242   
N30      N      0.924190000000     0.326940000000     0.497390000000    -0.102976   
N31      N      0.561780000000     0.695970000000     0.848780000000    -0.215039   
N32      N      0.750790000000     0.525270000000     0.498870000000    -0.216536   
N33      N      0.396000000000     0.556880000000     0.849270000000    -0.102181   
N34      N      0.760680000000     0.536520000000     0.598480000000    -0.214415   
N35      N      0.571830000000     0.705200000000     0.749540000000    -0.21499    
N36      N      0.927570000000     0.673330000000     0.600190000000    -0.102864   
O1       O      0.578900000000     0.759070000000     0.316190000000    -0.496464   
O2       O      0.484320000000     0.854700000000     0.270250000000    -0.498671   
O3       O      0.482470000000     0.696200000000     0.327370000000    -0.49798    
O4       O      0.509950000000     0.688630000000     0.282010000000    -0.491952   
O5       O      0.572560000000     0.854340000000     0.327300000000    -0.504      
O6       O      0.383870000000     0.760180000000     0.281370000000    -0.492655   
O7       O      0.491120000000     0.779330000000     0.298810000000    -0.876851   
O8       O      0.417170000000     0.788080000000     0.326840000000    -0.498834   
O9       O      0.382860000000     0.689800000000     0.315840000000    -0.491787   
O10      O      0.572970000000     0.786680000000     0.270650000000    -0.503631   
O11      O      0.417360000000     0.696110000000     0.270490000000    -0.498332   
O12      O      0.510780000000     0.889450000000     0.315690000000    -0.492539   
O13      O      0.580250000000     0.888870000000     0.281790000000    -0.49633    
O14      O      0.812540000000     0.542640000000     0.031360000000    -0.497833   
O15      O      0.904590000000     0.444530000000     0.077370000000    -0.504352   
O16      O      0.749110000000     0.444270000000     0.020480000000    -0.50468    
O17      O      0.743400000000     0.473250000000     0.065900000000    -0.495487   
O18      O      0.904930000000     0.534230000000     0.020030000000    -0.503468   
O19      O      0.811160000000     0.342710000000     0.066250000000    -0.498939   
O20      O      0.831000000000     0.452350000000     0.048820000000    -0.874678   
O21      O      0.838040000000     0.375980000000     0.020810000000    -0.49759    
O22      O      0.741970000000     0.342510000000     0.032040000000    -0.494946   
O23      O      0.839970000000     0.536870000000     0.076780000000    -0.496965   
O24      O      0.749350000000     0.378080000000     0.077470000000    -0.504522   
O25      O      0.938370000000     0.470670000000     0.031900000000    -0.495584   
O26      O      0.939290000000     0.542430000000     0.065500000000    -0.494219   
O27      O      0.578900000000     0.759070000000     0.816190000000    -0.49647    
O28      O      0.484320000000     0.854700000000     0.770250000000    -0.498673   
O29      O      0.482470000000     0.696200000000     0.827360000000    -0.49819    
O30      O      0.509950000000     0.688630000000     0.782010000000    -0.491968   
O31      O      0.572560000000     0.854340000000     0.827300000000    -0.504003   
O32      O      0.383870000000     0.760180000000     0.781370000000    -0.492665   
O33      O      0.491120000000     0.779330000000     0.798810000000    -0.876885   
O34      O      0.417170000000     0.788080000000     0.826840000000    -0.49884    
O35      O      0.382860000000     0.689800000000     0.815840000000    -0.491814   
O36      O      0.572970000000     0.786680000000     0.770650000000    -0.503637   
O37      O      0.417360000000     0.696110000000     0.770490000000    -0.498377   
O38      O      0.510780000000     0.889450000000     0.815690000000    -0.49254    
O39      O      0.580250000000     0.888870000000     0.781790000000    -0.496334   
O40      O      0.812540000000     0.542640000000     0.531360000000    -0.497835   
O41      O      0.904590000000     0.444530000000     0.577370000000    -0.504352   
O42      O      0.749110000000     0.444270000000     0.520480000000    -0.504674   
O43      O      0.743400000000     0.473250000000     0.565900000000    -0.495484   
O44      O      0.904930000000     0.534230000000     0.520030000000    -0.503463   
O45      O      0.811160000000     0.342710000000     0.566250000000    -0.498937   
O46      O      0.831000000000     0.452350000000     0.548820000000    -0.874684   
O47      O      0.838040000000     0.375980000000     0.520810000000    -0.497585   
O48      O      0.741970000000     0.342510000000     0.532040000000    -0.494947   
O49      O      0.839970000000     0.536870000000     0.576780000000    -0.496965   
O50      O      0.749350000000     0.378080000000     0.577470000000    -0.504522   
O51      O      0.938370000000     0.470670000000     0.531900000000    -0.495589   
O52      O      0.939290000000     0.542430000000     0.565500000000    -0.494217   


