data_structure

_audit_creation_method RASPA-1.0
_audit_creation_date 2023-6-4
_audit_author_name 'Poobodin Mano'

_cell_length_a    23.9998
_cell_length_b    23.9053
_cell_length_c    57.3172
_cell_angle_alpha 90
_cell_angle_beta  90
_cell_angle_gamma 120
_cell_volume      28478.5

_symmetry_cell_setting          triclinic
_symmetry_space_group_name_Hall 'P 1'
_symmetry_space_group_name_H-M  'P 1'
_symmetry_Int_Tables_number     1

_symmetry_equiv_pos_as_xyz 'x,y,z'

loop_
_atom_site_label
_atom_site_type_symbol
_atom_site_fract_x
_atom_site_fract_y
_atom_site_fract_z
_atom_site_charge
C1       C      0.558790000000     0.719860000000     0.325230000000     0.554403   
C2       C      0.568870000000     0.737590000000     0.262580000000     0.531224   
C3       C      0.556120000000     0.899160000000     0.266470000000     0.530046   
C4       C      0.396510000000     0.726580000000     0.327650000000     0.545051   
C5       C      0.395620000000     0.727480000000     0.264450000000     0.522606   
C6       C      0.566650000000     0.892190000000     0.329150000000     0.56099    
C7       C      0.794550000000     0.520010000000     0.074790000000     0.554404   
C8       C      0.782750000000     0.499490000000     0.012300000000     0.529149   
C9       C      0.791440000000     0.335480000000     0.017110000000     0.526106   
C10      C      0.954670000000     0.509120000000     0.077240000000     0.553057   
C11      C      0.953780000000     0.504900000000     0.014140000000     0.52797    
C12      C      0.781120000000     0.345100000000     0.079600000000     0.554551   
C13      C      0.314880000000     0.713780000000     0.383280000000    -0.220905   
C14      C      0.041540000000     0.502620000000     0.995640000000     0.0851585  
C15      C      0.993110000000     0.557060000000     0.977590000000     0.0847153  
C16      C      0.085710000000     0.520320000000     0.977340000000    -0.095312   
C17      C      0.108830000000     0.566860000000     0.416000000000    -0.038676   
C18      C      0.153340000000     0.588640000000     0.397710000000    -0.0225592  
C19      C      0.129880000000     0.576910000000     0.939290000000    -0.0022506  
C20      C      0.035650000000     0.574450000000     0.958820000000    -0.0946455  
C21      C      0.219650000000     0.621930000000     0.402410000000    -0.0278652  
C22      C      0.263390000000     0.610330000000     0.364180000000    -0.131228   
C23      C      0.240680000000     0.631480000000     0.925700000000    -0.0223097  
C24      C      0.307900000000     0.637090000000     0.346000000000     0.102972   
C25      C      0.357900000000     0.739510000000     0.364640000000     0.420947   
C26      C      0.196170000000     0.608630000000     0.943980000000    -0.0375745  
C27      C      0.082900000000     0.556520000000     0.958660000000     0.0543526  
C28      C      0.266760000000     0.648820000000     0.383090000000     0.11254    
C29      C      0.089210000000     0.623060000000     0.114160000000    -0.220429   
C30      C      0.306910000000     0.727450000000     0.245820000000     0.0814211  
C31      C      0.356440000000     0.673530000000     0.228180000000     0.0802418  
C32      C      0.262760000000     0.708790000000     0.227500000000    -0.0951892  
C33      C      0.153250000000     0.620200000000     0.193960000000    -0.0383584  
C34      C      0.109230000000     0.598100000000     0.175530000000    -0.0221232  
C35      C      0.219660000000     0.651780000000     0.189490000000    -0.00264932 
C36      C      0.313870000000     0.655150000000     0.209390000000    -0.0957688  
C37      C      0.130890000000     0.608290000000     0.152320000000    -0.0274095  
C38      C      0.035160000000     0.518670000000     0.132570000000    -0.130297   
C39      C      0.197320000000     0.641130000000     0.147840000000    -0.0226869  
C40      C      0.992730000000     0.495000000000     0.113740000000     0.106858   
C41      C      0.045210000000     0.598300000000     0.095740000000     0.430425   
C42      C      0.241330000000     0.662160000000     0.166280000000    -0.0380177  
C43      C      0.266160000000     0.672440000000     0.209000000000     0.0527119  
C44      C      0.084310000000     0.583170000000     0.132810000000     0.115033   
C45      C      0.683530000000     0.252830000000     0.129960000000    -0.22352    
C46      C      0.641790000000     0.979170000000     0.243730000000     0.0845299  
C47      C      0.534540000000     0.953350000000     0.235970000000     0.0840702  
C48      C      0.664330000000     0.023990000000     0.225540000000    -0.094736   
C49      C      0.706000000000     0.138700000000     0.193970000000    -0.0381905  
C50      C      0.728660000000     0.182590000000     0.175460000000    -0.0225943  
C51      C      0.644680000000     0.082810000000     0.192970000000    -0.00169106 
C52      C      0.555600000000     0.998910000000     0.218010000000    -0.0936942  
C53      C      0.689970000000     0.172440000000     0.155820000000    -0.0291517  
C54      C      0.767610000000     0.227640000000     0.123460000000    -0.133322   
C55      C      0.628470000000     0.117710000000     0.154830000000    -0.022385   
C56      C      0.788800000000     0.269890000000     0.104500000000     0.104804   
C57      C      0.706830000000     0.296080000000     0.111250000000     0.420488   
C58      C      0.606280000000     0.072950000000     0.173080000000    -0.0377441  
C59      C      0.621260000000     0.034820000000     0.212420000000     0.0533243  
C60      C      0.714140000000     0.218430000000     0.136200000000     0.113819   
C61      C      0.577010000000     0.007700000000     0.373580000000    -0.219018   
C62      C      0.811680000000     0.279420000000     0.986930000000     0.0813489  
C63      C      0.704970000000     0.256380000000     0.994320000000     0.0832833  
C64      C      0.790050000000     0.234060000000     0.968900000000    -0.0963279  
C65      C      0.710410000000     0.100560000000     0.943580000000    -0.0379685  
C66      C      0.687510000000     0.056490000000     0.925090000000    -0.0220998  
C67      C      0.701330000000     0.154110000000     0.943560000000    -0.0026991  
C68      C      0.681970000000     0.211880000000     0.976010000000    -0.0962471  
C69      C      0.656310000000     0.065900000000     0.405910000000    -0.0249419  
C70      C      0.663570000000     0.985840000000     0.379170000000    -0.125227   
C71      C      0.648400000000     0.120510000000     0.405920000000    -0.021867   
C72      C      0.640210000000     0.942750000000     0.360420000000     0.107162   
C73      C      0.555720000000     0.965530000000     0.354570000000     0.435981   
C74      C      0.669950000000     0.163620000000     0.424670000000    -0.0376056  
C75      C      0.724720000000     0.200330000000     0.963180000000     0.0537608  
C76      C      0.632050000000     0.019230000000     0.386030000000     0.11384    
C77      C      0.667080000000     0.705610000000     0.367010000000    -0.222168   
C78      C      0.709350000000     0.474440000000     0.980780000000     0.081747   
C79      C      0.791160000000     0.582930000000     0.987390000000     0.083406   
C80      C      0.685870000000     0.493720000000     0.961980000000    -0.0962728  
C81      C      0.629740000000     0.570480000000     0.936230000000    -0.038624   
C82      C      0.607720000000     0.593040000000     0.917960000000    -0.022747   
C83      C      0.692390000000     0.580290000000     0.935850000000    -0.00277695 
C84      C      0.769930000000     0.603590000000     0.968340000000    -0.09588    
C85      C      0.647500000000     0.624650000000     0.398640000000    -0.026635   
C86      C      0.559290000000     0.617790000000     0.372790000000    -0.129349   
C87      C      0.709950000000     0.633030000000     0.398210000000    -0.0222805  
C88      C      0.538410000000     0.642540000000     0.354910000000     0.104804   
C89      C      0.645000000000     0.728360000000     0.348830000000     0.422336   
C90      C      0.732370000000     0.611770000000     0.416760000000    -0.0382893  
C91      C      0.716470000000     0.558820000000     0.955600000000     0.0536109  
C92      C      0.624360000000     0.649460000000     0.379220000000     0.111864   
C93      C      0.794010000000     0.621660000000     0.122870000000    -0.218542   
C94      C      0.561350000000     0.654080000000     0.237880000000     0.0840084  
C95      C      0.641810000000     0.762840000000     0.230850000000     0.0835686  
C96      C      0.582600000000     0.633460000000     0.218800000000    -0.0968271  
C97      C      0.619770000000     0.625770000000     0.166880000000    -0.0382567  
C98      C      0.642440000000     0.604970000000     0.148250000000    -0.0226775  
C99      C      0.659580000000     0.657020000000     0.186050000000    -0.00276336 
C100     C      0.665340000000     0.743620000000     0.212030000000    -0.0958281  
C101     C      0.704990000000     0.613570000000     0.148630000000    -0.0248459  
C102     C      0.686380000000     0.534480000000     0.116290000000    -0.125038   
C103     C      0.744480000000     0.644720000000     0.168070000000    -0.0215483  
C104     C      0.709320000000     0.512900000000     0.098030000000     0.112088   
C105     C      0.815800000000     0.597970000000     0.104860000000     0.422256   
C106     C      0.722240000000     0.666850000000     0.186430000000    -0.0375117  
C107     C      0.635430000000     0.678400000000     0.205840000000     0.0542481  
C108     C      0.728700000000     0.589730000000     0.129020000000     0.112005   
C109     C      0.558790000000     0.719860000000     0.825230000000     0.554419   
C110     C      0.568870000000     0.737590000000     0.762580000000     0.531236   
C111     C      0.556120000000     0.899160000000     0.766470000000     0.530047   
C112     C      0.396510000000     0.726580000000     0.827650000000     0.545062   
C113     C      0.395620000000     0.727480000000     0.764450000000     0.522716   
C114     C      0.566650000000     0.892190000000     0.829150000000     0.560992   
C115     C      0.794550000000     0.520010000000     0.574790000000     0.554404   
C116     C      0.782750000000     0.499490000000     0.512300000000     0.529173   
C117     C      0.791440000000     0.335480000000     0.517110000000     0.526129   
C118     C      0.954670000000     0.509120000000     0.577240000000     0.553044   
C119     C      0.953780000000     0.504900000000     0.514140000000     0.527995   
C120     C      0.781120000000     0.345100000000     0.579600000000     0.554552   
C121     C      0.314880000000     0.713780000000     0.883280000000    -0.220905   
C122     C      0.041540000000     0.502620000000     0.495640000000     0.085122   
C123     C      0.993110000000     0.557060000000     0.477590000000     0.0847116  
C124     C      0.085710000000     0.520320000000     0.477340000000    -0.0952991  
C125     C      0.108830000000     0.566860000000     0.916000000000    -0.0386748  
C126     C      0.153340000000     0.588640000000     0.897710000000    -0.0225594  
C127     C      0.129880000000     0.576910000000     0.439290000000    -0.00224898 
C128     C      0.035650000000     0.574450000000     0.458820000000    -0.0946426  
C129     C      0.219650000000     0.621930000000     0.902410000000    -0.0278647  
C130     C      0.263390000000     0.610330000000     0.864180000000    -0.131229   
C131     C      0.240680000000     0.631480000000     0.425700000000    -0.0223099  
C132     C      0.307900000000     0.637090000000     0.846000000000     0.102973   
C133     C      0.357900000000     0.739510000000     0.864640000000     0.420948   
C134     C      0.196170000000     0.608630000000     0.443980000000    -0.0375762  
C135     C      0.082900000000     0.556520000000     0.458660000000     0.0543459  
C136     C      0.266760000000     0.648820000000     0.883090000000     0.11254    
C137     C      0.089210000000     0.623060000000     0.614160000000    -0.220218   
C138     C      0.306910000000     0.727450000000     0.745820000000     0.0814277  
C139     C      0.356440000000     0.673530000000     0.728180000000     0.0802432  
C140     C      0.262760000000     0.708790000000     0.727500000000    -0.0951936  
C141     C      0.153250000000     0.620200000000     0.693960000000    -0.0383521  
C142     C      0.109230000000     0.598100000000     0.675530000000    -0.0221349  
C143     C      0.219660000000     0.651780000000     0.689490000000    -0.00265367 
C144     C      0.313870000000     0.655150000000     0.709390000000    -0.0957718  
C145     C      0.130890000000     0.608290000000     0.652320000000    -0.0273909  
C146     C      0.035160000000     0.518670000000     0.632570000000    -0.130214   
C147     C      0.197320000000     0.641130000000     0.647840000000    -0.0226923  
C148     C      0.992730000000     0.495000000000     0.613740000000     0.106824   
C149     C      0.045210000000     0.598300000000     0.595740000000     0.43013    
C150     C      0.241330000000     0.662160000000     0.666280000000    -0.0380133  
C151     C      0.266160000000     0.672440000000     0.709000000000     0.0527153  
C152     C      0.084310000000     0.583170000000     0.632820000000     0.114896   
C153     C      0.683530000000     0.252830000000     0.629960000000    -0.22352    
C154     C      0.641790000000     0.979170000000     0.743730000000     0.0845297  
C155     C      0.534540000000     0.953350000000     0.735970000000     0.0840696  
C156     C      0.664330000000     0.023990000000     0.725540000000    -0.0947362  
C157     C      0.706000000000     0.138700000000     0.693970000000    -0.0381904  
C158     C      0.728660000000     0.182590000000     0.675460000000    -0.0225943  
C159     C      0.644680000000     0.082810000000     0.692970000000    -0.00169113 
C160     C      0.555600000000     0.998910000000     0.718010000000    -0.0936945  
C161     C      0.689970000000     0.172440000000     0.655820000000    -0.0291514  
C162     C      0.767610000000     0.227640000000     0.623460000000    -0.133321   
C163     C      0.628470000000     0.117710000000     0.654830000000    -0.0223848  
C164     C      0.788800000000     0.269890000000     0.604500000000     0.104805   
C165     C      0.706830000000     0.296080000000     0.611250000000     0.420489   
C166     C      0.606280000000     0.072950000000     0.673080000000    -0.0377438  
C167     C      0.621260000000     0.034820000000     0.712420000000     0.0533243  
C168     C      0.714140000000     0.218430000000     0.636200000000     0.113819   
C169     C      0.577010000000     0.007700000000     0.873580000000    -0.219018   
C170     C      0.811680000000     0.279420000000     0.486930000000     0.081344   
C171     C      0.704970000000     0.256380000000     0.494320000000     0.0832453  
C172     C      0.790050000000     0.234060000000     0.468900000000    -0.0963255  
C173     C      0.710410000000     0.100560000000     0.443580000000    -0.0379703  
C174     C      0.687510000000     0.056490000000     0.425090000000    -0.0221001  
C175     C      0.701330000000     0.154110000000     0.443560000000    -0.00269759 
C176     C      0.681970000000     0.211880000000     0.476010000000    -0.0962343  
C177     C      0.656310000000     0.065900000000     0.905910000000    -0.0249413  
C178     C      0.663570000000     0.985840000000     0.879170000000    -0.125227   
C179     C      0.648400000000     0.120510000000     0.905920000000    -0.0218671  
C180     C      0.640210000000     0.942750000000     0.860420000000     0.107162   
C181     C      0.555720000000     0.965530000000     0.854570000000     0.435982   
C182     C      0.669950000000     0.163620000000     0.924670000000    -0.0376043  
C183     C      0.724720000000     0.200330000000     0.463180000000     0.0537536  
C184     C      0.632050000000     0.019230000000     0.886030000000     0.11384    
C185     C      0.667080000000     0.705610000000     0.867010000000    -0.22217    
C186     C      0.709350000000     0.474440000000     0.480780000000     0.0817188  
C187     C      0.791160000000     0.582930000000     0.487390000000     0.083407   
C188     C      0.685870000000     0.493720000000     0.461970000000    -0.096301   
C189     C      0.629740000000     0.570480000000     0.436230000000    -0.0386294  
C190     C      0.607720000000     0.593040000000     0.417950000000    -0.0227509  
C191     C      0.692390000000     0.580290000000     0.435850000000    -0.00278274 
C192     C      0.769930000000     0.603590000000     0.468340000000    -0.0958954  
C193     C      0.647500000000     0.624650000000     0.898640000000    -0.0266466  
C194     C      0.559290000000     0.617790000000     0.872790000000    -0.129351   
C195     C      0.709950000000     0.633030000000     0.898210000000    -0.0222742  
C196     C      0.538410000000     0.642540000000     0.854910000000     0.104806   
C197     C      0.645000000000     0.728360000000     0.848830000000     0.422337   
C198     C      0.732370000000     0.611770000000     0.916760000000    -0.0382941  
C199     C      0.716470000000     0.558820000000     0.455600000000     0.0536372  
C200     C      0.624360000000     0.649460000000     0.879220000000     0.111869   
C201     C      0.794010000000     0.621660000000     0.622870000000    -0.218561   
C202     C      0.561350000000     0.654080000000     0.737880000000     0.0839916  
C203     C      0.641810000000     0.762840000000     0.730850000000     0.083555   
C204     C      0.582600000000     0.633460000000     0.718800000000    -0.0967796  
C205     C      0.619770000000     0.625770000000     0.666880000000    -0.038263   
C206     C      0.642440000000     0.604970000000     0.648250000000    -0.0226658  
C207     C      0.659580000000     0.657020000000     0.686050000000    -0.00275845 
C208     C      0.665340000000     0.743620000000     0.712030000000    -0.0957892  
C209     C      0.704990000000     0.613570000000     0.648630000000    -0.0248662  
C210     C      0.686380000000     0.534480000000     0.616300000000    -0.125045   
C211     C      0.744480000000     0.644720000000     0.668080000000    -0.0215428  
C212     C      0.709320000000     0.512900000000     0.598030000000     0.112044   
C213     C      0.815800000000     0.597970000000     0.604860000000     0.422262   
C214     C      0.722240000000     0.666850000000     0.686430000000    -0.0375061  
C215     C      0.635430000000     0.678400000000     0.705830000000     0.0541928  
C216     C      0.728700000000     0.589730000000     0.629020000000     0.112046   
F1       F      0.403790000000     0.802980000000     0.365840000000    -0.435453   
F2       F      0.052150000000     0.639240000000     0.078080000000    -0.443894   
F3       F      0.675320000000     0.328430000000     0.105930000000    -0.457668   
F4       F      0.501700000000     0.956090000000     0.343420000000    -0.438765   
F5       F      0.688730000000     0.783590000000     0.337950000000    -0.458094   
F6       F      0.879660000000     0.631260000000     0.099770000000    -0.443434   
F7       F      0.403790000000     0.802980000000     0.865840000000    -0.435453   
F8       F      0.052150000000     0.639240000000     0.578070000000    -0.443741   
F9       F      0.675320000000     0.328430000000     0.605930000000    -0.457667   
F10      F      0.501700000000     0.956090000000     0.843420000000    -0.438765   
F11      F      0.688730000000     0.783590000000     0.837950000000    -0.458095   
F12      F      0.879660000000     0.631260000000     0.599770000000    -0.443436   
Fe1      Fe     0.587510000000     0.824980000000     0.295880000000     1.37587    
Fe2      Fe     0.466130000000     0.822870000000     0.297660000000     1.37607    
Fe3      Fe     0.467580000000     0.703480000000     0.294100000000     1.35748    
Fe4      Fe     0.762680000000     0.412840000000     0.045970000000     1.37139    
Fe5      Fe     0.882550000000     0.411780000000     0.048030000000     1.35853    
Fe6      Fe     0.884120000000     0.532500000000     0.043600000000     1.3779     
Fe7      Fe     0.587510000000     0.824980000000     0.795880000000     1.37588    
Fe8      Fe     0.466130000000     0.822870000000     0.797660000000     1.37609    
Fe9      Fe     0.467580000000     0.703480000000     0.794100000000     1.35775    
Fe10     Fe     0.762680000000     0.412840000000     0.545970000000     1.37139    
Fe11     Fe     0.882550000000     0.411780000000     0.548030000000     1.35854    
Fe12     Fe     0.884120000000     0.532500000000     0.543600000000     1.3779     
H1       H      0.957510000000     0.572340000000     0.977110000000     0.0295706  
H2       H      0.303670000000     0.605500000000     0.331700000000     0.0188603  
H3       H      0.213560000000     0.617270000000     0.961800000000     0.0451905  
H4       H      0.135980000000     0.581020000000     0.379890000000     0.0385006  
H5       H      0.226890000000     0.559690000000     0.363530000000     0.0647368  
H6       H      0.057920000000     0.542260000000     0.411960000000     0.0420827  
H7       H      0.318620000000     0.744950000000     0.397640000000     0.121838   
H8       H      0.032360000000     0.602850000000     0.944720000000     0.0586546  
H9       H      0.121510000000     0.505370000000     0.977720000000     0.0571226  
H10      H      0.291600000000     0.656790000000     0.929750000000     0.0425283  
H11      H      0.045080000000     0.474380000000     0.009760000000     0.0257334  
H12      H      0.392510000000     0.658850000000     0.227880000000     0.0263933  
H13      H      0.955570000000     0.444510000000     0.114240000000     0.023351   
H14      H      0.292340000000     0.686700000000     0.162410000000     0.0427622  
H15      H      0.058210000000     0.573140000000     0.179400000000     0.040791   
H16      H      0.030180000000     0.486290000000     0.146670000000     0.0656041  
H17      H      0.135410000000     0.611330000000     0.211720000000     0.0426832  
H18      H      0.126640000000     0.673390000000     0.113910000000     0.122801   
H19      H      0.317620000000     0.626660000000     0.195420000000     0.0557416  
H20      H      0.226600000000     0.723290000000     0.227680000000     0.0585926  
H21      H      0.215150000000     0.649210000000     0.130090000000     0.0418817  
H22      H      0.302960000000     0.755890000000     0.259770000000     0.0284927  
H23      H      0.483360000000     0.926570000000     0.239630000000     0.0291119  
H24      H      0.830230000000     0.275280000000     0.094960000000     0.0180086  
H25      H      0.559460000000     0.030100000000     0.171320000000     0.042167   
H26      H      0.776160000000     0.224930000000     0.176570000000     0.038661   
H27      H      0.792260000000     0.201520000000     0.127910000000     0.0659282  
H28      H      0.736550000000     0.149080000000     0.209120000000     0.0416872  
H29      H      0.642010000000     0.246620000000     0.139640000000     0.119259   
H30      H      0.520360000000     0.006180000000     0.208800000000     0.0574903  
H31      H      0.715280000000     0.049090000000     0.221650000000     0.0557729  
H32      H      0.598150000000     0.108880000000     0.139690000000     0.0422647  
H33      H      0.676870000000     0.972330000000     0.253330000000     0.0260667  
H34      H      0.670350000000     0.264040000000     0.003880000000     0.0265126  
H35      H      0.666420000000     0.918330000000     0.355720000000     0.0369446  
H36      H      0.663120000000     0.205120000000     0.424230000000     0.0435999  
H37      H      0.693570000000     0.014630000000     0.926060000000     0.0397972  
H38      H      0.706840000000     0.993540000000     0.387890000000     0.0677415  
H39      H      0.734230000000     0.092230000000     0.958110000000     0.0433679  
H40      H      0.549610000000     0.030530000000     0.378600000000     0.123176   
H41      H      0.631030000000     0.186370000000     0.972000000000     0.0592616  
H42      H      0.824360000000     0.226330000000     0.959190000000     0.0568978  
H43      H      0.626230000000     0.130680000000     0.391330000000     0.0419146  
H44      H      0.862830000000     0.305260000000     0.990660000000     0.0250581  
H45      H      0.832480000000     0.619150000000     0.996970000000     0.0294582  
H46      H      0.487590000000     0.616320000000     0.350630000000     0.0206109  
H47      H      0.780780000000     0.619300000000     0.416090000000     0.0435284  
H48      H      0.559920000000     0.586710000000     0.919270000000     0.037519   
H49      H      0.524370000000     0.573570000000     0.381300000000     0.0643249  
H50      H      0.598370000000     0.546720000000     0.950960000000     0.0430169  
H51      H      0.717490000000     0.732940000000     0.371680000000     0.117732   
H52      H      0.794520000000     0.654400000000     0.963820000000     0.059567   
H53      H      0.644460000000     0.457910000000     0.952350000000     0.057102   
H54      H      0.741630000000     0.655630000000     0.383490000000     0.0411222  
H55      H      0.684600000000     0.423480000000     0.985150000000     0.0254893  
H56      H      0.666020000000     0.813890000000     0.235060000000     0.0270295  
H57      H      0.674640000000     0.469720000000     0.088840000000     0.0363679  
H58      H      0.753490000000     0.690390000000     0.201200000000     0.045407   
H59      H      0.610890000000     0.582680000000     0.133470000000     0.0376698  
H60      H      0.635720000000     0.506980000000     0.120570000000     0.0698768  
H61      H      0.571340000000     0.618160000000     0.166220000000     0.0422404  
H62      H      0.828540000000     0.665440000000     0.131710000000     0.119401   
H63      H      0.706270000000     0.779570000000     0.202240000000     0.0585429  
H64      H      0.558520000000     0.582560000000     0.214440000000     0.0579263  
H65      H      0.792310000000     0.651140000000     0.169420000000     0.0430341  
H66      H      0.520520000000     0.617710000000     0.247620000000     0.0234536  
H67      H      0.957510000000     0.572340000000     0.477110000000     0.029566   
H68      H      0.303670000000     0.605500000000     0.831700000000     0.0188609  
H69      H      0.213560000000     0.617270000000     0.461800000000     0.0451882  
H70      H      0.135980000000     0.581020000000     0.879890000000     0.0385007  
H71      H      0.226890000000     0.559690000000     0.863530000000     0.0647371  
H72      H      0.057920000000     0.542260000000     0.911960000000     0.0420827  
H73      H      0.318620000000     0.744950000000     0.897640000000     0.121839   
H74      H      0.032360000000     0.602850000000     0.444720000000     0.0586529  
H75      H      0.121510000000     0.505370000000     0.477720000000     0.0571147  
H76      H      0.291600000000     0.656790000000     0.429750000000     0.0425267  
H77      H      0.045080000000     0.474380000000     0.509760000000     0.0257616  
H78      H      0.392510000000     0.658850000000     0.727880000000     0.0263819  
H79      H      0.955570000000     0.444510000000     0.614240000000     0.0233605  
H80      H      0.292340000000     0.686700000000     0.662410000000     0.0427618  
H81      H      0.058210000000     0.573140000000     0.679400000000     0.0407933  
H82      H      0.030180000000     0.486290000000     0.646670000000     0.0655827  
H83      H      0.135410000000     0.611330000000     0.711720000000     0.0426815  
H84      H      0.126640000000     0.673390000000     0.613910000000     0.122736   
H85      H      0.317620000000     0.626660000000     0.695420000000     0.0557426  
H86      H      0.226600000000     0.723290000000     0.727680000000     0.0585935  
H87      H      0.215150000000     0.649210000000     0.630090000000     0.0418879  
H88      H      0.302960000000     0.755890000000     0.759770000000     0.0284892  
H89      H      0.483360000000     0.926570000000     0.739630000000     0.0291108  
H90      H      0.830230000000     0.275280000000     0.594960000000     0.0180104  
H91      H      0.559460000000     0.030100000000     0.671320000000     0.0421674  
H92      H      0.776160000000     0.224930000000     0.676570000000     0.0386611  
H93      H      0.792260000000     0.201520000000     0.627910000000     0.0659293  
H94      H      0.736550000000     0.149080000000     0.709120000000     0.0416871  
H95      H      0.642010000000     0.246620000000     0.639640000000     0.119259   
H96      H      0.520360000000     0.006180000000     0.708800000000     0.0574902  
H97      H      0.715280000000     0.049090000000     0.721650000000     0.055773   
H98      H      0.598150000000     0.108880000000     0.639690000000     0.0422661  
H99      H      0.676870000000     0.972330000000     0.753330000000     0.0260664  
H100     H      0.670350000000     0.264040000000     0.503880000000     0.0265402  
H101     H      0.666420000000     0.918330000000     0.855720000000     0.0369446  
H102     H      0.663120000000     0.205120000000     0.924230000000     0.0436003  
H103     H      0.693570000000     0.014630000000     0.426060000000     0.0397956  
H104     H      0.706840000000     0.993540000000     0.887890000000     0.0677421  
H105     H      0.734230000000     0.092230000000     0.458110000000     0.0433654  
H106     H      0.549610000000     0.030530000000     0.878600000000     0.123177   
H107     H      0.631030000000     0.186370000000     0.472000000000     0.0592535  
H108     H      0.824360000000     0.226330000000     0.459190000000     0.0568952  
H109     H      0.626230000000     0.130680000000     0.891330000000     0.0419148  
H110     H      0.862830000000     0.305260000000     0.490660000000     0.0250516  
H111     H      0.832480000000     0.619150000000     0.496970000000     0.0294496  
H112     H      0.487590000000     0.616320000000     0.850630000000     0.0206102  
H113     H      0.780780000000     0.619300000000     0.916090000000     0.0435297  
H114     H      0.559920000000     0.586710000000     0.419270000000     0.037518   
H115     H      0.524370000000     0.573570000000     0.881300000000     0.0643255  
H116     H      0.598370000000     0.546720000000     0.450960000000     0.0430141  
H117     H      0.717490000000     0.732940000000     0.871680000000     0.117733   
H118     H      0.794520000000     0.654400000000     0.463820000000     0.059568   
H119     H      0.644460000000     0.457910000000     0.452350000000     0.0571264  
H120     H      0.741630000000     0.655630000000     0.883490000000     0.0411207  
H121     H      0.684600000000     0.423480000000     0.485150000000     0.0254882  
H122     H      0.666020000000     0.813890000000     0.735060000000     0.0270323  
H123     H      0.674640000000     0.469720000000     0.588840000000     0.0363794  
H124     H      0.753490000000     0.690390000000     0.701200000000     0.0454074  
H125     H      0.610890000000     0.582680000000     0.633470000000     0.0376675  
H126     H      0.635720000000     0.506980000000     0.620570000000     0.0698902  
H127     H      0.571340000000     0.618160000000     0.666220000000     0.0422424  
H128     H      0.828540000000     0.665440000000     0.631710000000     0.119406   
H129     H      0.706270000000     0.779570000000     0.702240000000     0.0585326  
H130     H      0.558520000000     0.582560000000     0.714440000000     0.0579142  
H131     H      0.792310000000     0.651140000000     0.669420000000     0.0430332  
H132     H      0.520520000000     0.617710000000     0.747620000000     0.0234572  
N1       N      0.354360000000     0.701350000000     0.346030000000    -0.263148   
N2       N      0.996040000000     0.521460000000     0.995870000000    -0.213854   
N3       N      0.997510000000     0.534320000000     0.095420000000    -0.262489   
N4       N      0.353050000000     0.709480000000     0.246240000000    -0.215009   
N5       N      0.758840000000     0.304000000000     0.098390000000    -0.266229   
N6       N      0.577370000000     0.943860000000     0.248830000000    -0.214825   
N7       N      0.587330000000     0.933340000000     0.347950000000    -0.261622   
N8       N      0.769420000000     0.290370000000     0.999590000000    -0.215322   
N9       N      0.580860000000     0.697080000000     0.342850000000    -0.265482   
N10      N      0.761140000000     0.518840000000     0.993550000000    -0.215953   
N11      N      0.773560000000     0.543880000000     0.092430000000    -0.261939   
N12      N      0.590650000000     0.718290000000     0.243840000000    -0.215749   
N13      N      0.354360000000     0.701350000000     0.846030000000    -0.26315    
N14      N      0.996040000000     0.521460000000     0.495870000000    -0.213862   
N15      N      0.997510000000     0.534320000000     0.595420000000    -0.262423   
N16      N      0.353050000000     0.709480000000     0.746240000000    -0.215037   
N17      N      0.758840000000     0.304000000000     0.598390000000    -0.266229   
N18      N      0.577370000000     0.943860000000     0.748830000000    -0.214826   
N19      N      0.587330000000     0.933340000000     0.847950000000    -0.261622   
N20      N      0.769420000000     0.290370000000     0.499590000000    -0.21533    
N21      N      0.580860000000     0.697080000000     0.842850000000    -0.265485   
N22      N      0.761140000000     0.518840000000     0.493550000000    -0.215964   
N23      N      0.773560000000     0.543880000000     0.592430000000    -0.261932   
N24      N      0.590650000000     0.718290000000     0.743840000000    -0.215746   
O1       O      0.527790000000     0.696430000000     0.276430000000    -0.498122   
O2       O      0.433200000000     0.786470000000     0.325680000000    -0.453172   
O3       O      0.591240000000     0.796550000000     0.266940000000    -0.50225    
O4       O      0.597630000000     0.763310000000     0.311460000000    -0.461721   
O5       O      0.433520000000     0.705760000000     0.266170000000    -0.502782   
O6       O      0.525680000000     0.891310000000     0.315090000000    -0.456786   
O7       O      0.507350000000     0.783880000000     0.295860000000    -0.884206   
O8       O      0.496870000000     0.862160000000     0.269840000000    -0.500354   
O9       O      0.595770000000     0.896030000000     0.280240000000    -0.495506   
O10      O      0.499370000000     0.695950000000     0.321810000000    -0.507564   
O11      O      0.590350000000     0.856800000000     0.324850000000    -0.494287   
O12      O      0.395940000000     0.764120000000     0.280470000000    -0.490962   
O13      O      0.397280000000     0.690470000000     0.311600000000    -0.497682   
O14      O      0.824530000000     0.540610000000     0.025960000000    -0.494176   
O15      O      0.916510000000     0.449310000000     0.075820000000    -0.507731   
O16      O      0.759460000000     0.440580000000     0.016890000000    -0.505096   
O17      O      0.754640000000     0.476260000000     0.061300000000    -0.492707   
O18      O      0.916920000000     0.527920000000     0.015700000000    -0.498471   
O19      O      0.822260000000     0.344830000000     0.065880000000    -0.504832   
O20      O      0.842820000000     0.452220000000     0.045850000000    -0.884382   
O21      O      0.850850000000     0.371370000000     0.020470000000    -0.503907   
O22      O      0.752410000000     0.340430000000     0.030670000000    -0.492553   
O23      O      0.853650000000     0.542200000000     0.071280000000    -0.4595     
O24      O      0.759320000000     0.381890000000     0.075050000000    -0.469215   
O25      O      0.952930000000     0.468610000000     0.030420000000    -0.491101   
O26      O      0.954300000000     0.544720000000     0.060950000000    -0.447404   
O27      O      0.527790000000     0.696430000000     0.776430000000    -0.498149   
O28      O      0.433200000000     0.786470000000     0.825680000000    -0.453178   
O29      O      0.591240000000     0.796550000000     0.766940000000    -0.502255   
O30      O      0.597630000000     0.763310000000     0.811460000000    -0.461731   
O31      O      0.433520000000     0.705760000000     0.766180000000    -0.503004   
O32      O      0.525680000000     0.891310000000     0.815090000000    -0.45679    
O33      O      0.507350000000     0.783880000000     0.795860000000    -0.884239   
O34      O      0.496870000000     0.862160000000     0.769840000000    -0.500357   
O35      O      0.595770000000     0.896030000000     0.780240000000    -0.495507   
O36      O      0.499370000000     0.695950000000     0.821810000000    -0.507609   
O37      O      0.590350000000     0.856800000000     0.824850000000    -0.49429    
O38      O      0.395940000000     0.764120000000     0.780470000000    -0.490975   
O39      O      0.397280000000     0.690470000000     0.811600000000    -0.497699   
O40      O      0.824530000000     0.540610000000     0.525960000000    -0.494175   
O41      O      0.916510000000     0.449310000000     0.575820000000    -0.507726   
O42      O      0.759460000000     0.440580000000     0.516890000000    -0.505094   
O43      O      0.754640000000     0.476260000000     0.561300000000    -0.492706   
O44      O      0.916920000000     0.527920000000     0.515700000000    -0.498467   
O45      O      0.822260000000     0.344830000000     0.565880000000    -0.504831   
O46      O      0.842820000000     0.452220000000     0.545850000000    -0.884385   
O47      O      0.850850000000     0.371370000000     0.520470000000    -0.503905   
O48      O      0.752410000000     0.340430000000     0.530670000000    -0.492554   
O49      O      0.853650000000     0.542200000000     0.571280000000    -0.459501   
O50      O      0.759320000000     0.381890000000     0.575050000000    -0.469215   
O51      O      0.952930000000     0.468610000000     0.530420000000    -0.491099   
O52      O      0.954300000000     0.544720000000     0.560950000000    -0.447386   


