data_structure

_audit_creation_method RASPA-1.0
_audit_creation_date 2023-6-4
_audit_author_name 'Poobodin Mano'

_cell_length_a    24.4789
_cell_length_b    24.4106
_cell_length_c    28.2523
_cell_angle_alpha 90
_cell_angle_beta  90
_cell_angle_gamma 120.434
_cell_volume      14555.9

_symmetry_cell_setting          triclinic
_symmetry_space_group_name_Hall 'P 1'
_symmetry_space_group_name_H-M  'P 1'
_symmetry_Int_Tables_number     1

_symmetry_equiv_pos_as_xyz 'x,y,z'

loop_
_atom_site_label
_atom_site_type_symbol
_atom_site_fract_x
_atom_site_fract_y
_atom_site_fract_z
_atom_site_charge
C1       C      0.583180000000     0.754980000000     0.634410000000     0.526322   
C2       C      0.573620000000     0.740300000000     0.761360000000     0.52484    
C3       C      0.414950000000     0.748880000000     0.765390000000     0.520175   
C4       C      0.573920000000     0.915950000000     0.640160000000     0.524932   
C5       C      0.585630000000     0.911400000000     0.767020000000     0.52802    
C6       C      0.414370000000     0.747520000000     0.637610000000     0.522181   
C7       C      0.797710000000     0.519680000000     0.134130000000     0.527821   
C8       C      0.807410000000     0.534440000000     0.261080000000     0.524765   
C9       C      0.965950000000     0.526170000000     0.264960000000     0.521914   
C10      C      0.808020000000     0.359650000000     0.139420000000     0.524993   
C11      C      0.796450000000     0.363250000000     0.266270000000     0.526649   
C12      C      0.967650000000     0.528470000000     0.137170000000     0.520155   
C13      C      0.056070000000     0.530360000000     0.100270000000     0.0791259  
C14      C      0.100890000000     0.550360000000     0.063940000000    -0.0978678  
C15      C      0.098900000000     0.587250000000     0.026850000000     0.0519129  
C16      C      0.051800000000     0.603660000000     0.027200000000    -0.0971982  
C17      C      0.008540000000     0.583980000000     0.064580000000     0.0781912  
C18      C      0.146170000000     0.609170000000     0.988160000000    -0.0085846  
C19      C      0.211230000000     0.640920000000     0.998550000000    -0.0357824  
C20      C      0.255960000000     0.663300000000     0.962040000000    -0.0358447  
C21      C      0.236370000000     0.653160000000     0.914530000000    -0.00855616 
C22      C      0.171290000000     0.620430000000     0.904130000000    -0.0358171  
C23      C      0.126570000000     0.599190000000     0.940640000000    -0.0358294  
C24      C      0.283730000000     0.677760000000     0.875870000000     0.0518612  
C25      C      0.331970000000     0.741530000000     0.875270000000    -0.0971431  
C26      C      0.375290000000     0.764580000000     0.837920000000     0.0779966  
C27      C      0.325660000000     0.662270000000     0.802730000000     0.0789794  
C28      C      0.280730000000     0.637980000000     0.839060000000    -0.097692   
C29      C      0.005660000000     0.509600000000     0.336970000000     0.078762   
C30      C      0.048860000000     0.532090000000     0.374290000000    -0.0968543  
C31      C      0.096460000000     0.596260000000     0.376030000000     0.0517394  
C32      C      0.098140000000     0.636810000000     0.340180000000    -0.0971339  
C33      C      0.053540000000     0.612850000000     0.303640000000     0.0794828  
C34      C      0.144470000000     0.620250000000     0.414650000000    -0.00783989 
C35      C      0.167160000000     0.581880000000     0.432880000000    -0.0353184  
C36      C      0.211760000000     0.603810000000     0.469310000000    -0.0353239  
C37      C      0.235740000000     0.665130000000     0.488110000000    -0.00782165 
C38      C      0.213430000000     0.703760000000     0.469700000000    -0.0353382  
C39      C      0.168150000000     0.681490000000     0.433590000000    -0.0353186  
C40      C      0.283630000000     0.688330000000     0.526800000000     0.0517272  
C41      C      0.330180000000     0.671040000000     0.528200000000    -0.0968329  
C42      C      0.373380000000     0.691210000000     0.565510000000     0.0787848  
C43      C      0.327450000000     0.747260000000     0.599540000000     0.0795357  
C44      C      0.282890000000     0.727190000000     0.563050000000    -0.0971876  
C45      C      0.658370000000     0.994350000000     0.593510000000     0.0806971  
C46      C      0.680530000000     0.038560000000     0.556640000000    -0.0986027  
C47      C      0.638000000000     0.049290000000     0.531040000000     0.0527777  
C48      C      0.573670000000     0.014810000000     0.542570000000    -0.0979403  
C49      C      0.552860000000     0.969780000000     0.578870000000     0.0792508  
C50      C      0.660720000000     0.095890000000     0.492030000000    -0.00864826 
C51      C      0.689680000000     0.087060000000     0.452330000000    -0.0359462  
C52      C      0.711100000000     0.130940000000     0.415230000000    -0.0352394  
C53      C      0.705480000000     0.185580000000     0.417550000000    -0.00805538 
C54      C      0.676590000000     0.194210000000     0.457790000000    -0.0352468  
C55      C      0.653820000000     0.149430000000     0.494370000000    -0.0360162  
C56      C      0.729830000000     0.233200000000     0.378290000000     0.0514733  
C57      C      0.782740000000     0.244050000000     0.351600000000    -0.0972922  
C58      C      0.803980000000     0.287320000000     0.314190000000     0.0805395  
C59      C      0.724000000000     0.312330000000     0.329840000000     0.0788627  
C60      C      0.700510000000     0.268220000000     0.366830000000    -0.0964673  
C61      C      0.658330000000     0.961170000000     0.830580000000     0.0792421  
C62      C      0.681930000000     0.004590000000     0.867960000000    -0.0985099  
C63      C      0.652390000000     0.038950000000     0.879750000000     0.0530488  
C64      C      0.599910000000     0.029520000000     0.853590000000    -0.099208   
C65      C      0.578540000000     0.986980000000     0.815720000000     0.0808866  
C66      C      0.676470000000     0.085130000000     0.918940000000    -0.00891598 
C67      C      0.736980000000     0.139240000000     0.916310000000    -0.0359031  
C68      C      0.758770000000     0.184490000000     0.952500000000    -0.0352378  
C69      C      0.720950000000     0.175780000000     0.992620000000    -0.00807429 
C70      C      0.660670000000     0.120490000000     0.995320000000    -0.0353243  
C71      C      0.638410000000     0.076070000000     0.958580000000    -0.0359391  
C72      C      0.743960000000     0.224240000000     0.031190000000     0.0517605  
C73      C      0.808600000000     0.260290000000     0.042460000000    -0.0966124  
C74      C      0.829300000000     0.305940000000     0.078260000000     0.0792909  
C75      C      0.723700000000     0.280230000000     0.093400000000     0.0808369  
C76      C      0.701530000000     0.235250000000     0.057090000000    -0.0972598  
C77      C      0.725330000000     0.497170000000     0.070610000000     0.0791357  
C78      C      0.701880000000     0.517460000000     0.033650000000    -0.0966273  
C79      C      0.731390000000     0.582240000000     0.022140000000     0.0516798  
C80      C      0.784480000000     0.625100000000     0.048690000000    -0.09745    
C81      C      0.805710000000     0.603350000000     0.086070000000     0.0807109  
C82      C      0.706950000000     0.605120000000     0.983010000000    -0.00811681 
C83      C      0.678020000000     0.567150000000     0.942770000000    -0.0351884  
C84      C      0.654940000000     0.588680000000     0.906360000000    -0.0359752  
C85      C      0.661580000000     0.649090000000     0.908890000000    -0.00872044 
C86      C      0.690640000000     0.687380000000     0.948540000000    -0.0359331  
C87      C      0.712390000000     0.665380000000     0.985480000000    -0.0351713  
C88      C      0.638540000000     0.672460000000     0.870080000000     0.0529787  
C89      C      0.573970000000     0.642260000000     0.859480000000    -0.0981481  
C90      C      0.552880000000     0.666010000000     0.823290000000     0.0794125  
C91      C      0.658540000000     0.747110000000     0.806990000000     0.0809398  
C92      C      0.681020000000     0.725560000000     0.843710000000    -0.0988125  
C93      C      0.655300000000     0.777220000000     0.570720000000     0.0788744  
C94      C      0.678650000000     0.756810000000     0.533760000000    -0.0964464  
C95      C      0.649170000000     0.691990000000     0.522340000000     0.0513955  
C96      C      0.596210000000     0.649220000000     0.549080000000    -0.0971512  
C97      C      0.575100000000     0.671090000000     0.586490000000     0.0803202  
C98      C      0.673510000000     0.669020000000     0.483120000000    -0.0080126  
C99      C      0.702740000000     0.707110000000     0.442980000000    -0.0352527  
C100     C      0.725880000000     0.685600000000     0.406550000000    -0.0360307  
C101     C      0.719000000000     0.625080000000     0.408930000000    -0.00863378 
C102     C      0.689580000000     0.586650000000     0.448470000000    -0.0359213  
C103     C      0.667780000000     0.608620000000     0.485430000000    -0.0352697  
C104     C      0.742180000000     0.601770000000     0.370080000000     0.0527271  
C105     C      0.806700000000     0.632480000000     0.359140000000    -0.0979163  
C106     C      0.827900000000     0.608890000000     0.322880000000     0.079227   
C107     C      0.722460000000     0.526930000000     0.307140000000     0.0807748  
C108     C      0.699890000000     0.548300000000     0.343940000000    -0.0986343  
Fe1      Fe     0.484170000000     0.724170000000     0.698350000000     1.35164    
Fe2      Fe     0.485180000000     0.842420000000     0.704160000000     1.35246    
Fe3      Fe     0.603550000000     0.842920000000     0.700480000000     1.35452    
Fe4      Fe     0.897050000000     0.551060000000     0.197830000000     1.35079    
Fe5      Fe     0.896560000000     0.433060000000     0.203350000000     1.35355    
Fe6      Fe     0.777900000000     0.431850000000     0.200230000000     1.35421    
H1       H      0.059030000000     0.501570000000     0.128250000000     0.0213401  
H2       H      0.136500000000     0.536490000000     0.064620000000     0.0532114  
H3       H      0.049070000000     0.632430000000     0.999150000000     0.0535666  
H4       H      0.973030000000     0.598040000000     0.063720000000     0.0249091  
H5       H      0.227470000000     0.649450000000     0.034930000000     0.037464   
H6       H      0.305900000000     0.688210000000     0.970910000000     0.0378144  
H7       H      0.155070000000     0.612370000000     0.867750000000     0.0375201  
H8       H      0.076640000000     0.574570000000     0.931780000000     0.0378585  
H9       H      0.335540000000     0.773730000000     0.903100000000     0.0532663  
H10      H      0.411650000000     0.814430000000     0.838580000000     0.0248455  
H11      H      0.321890000000     0.629910000000     0.774930000000     0.0213335  
H12      H      0.244210000000     0.588240000000     0.838590000000     0.0531624  
H13      H      0.969850000000     0.459540000000     0.337010000000     0.0248779  
H14      H      0.044540000000     0.499170000000     0.401740000000     0.0527942  
H15      H      0.134420000000     0.686590000000     0.339630000000     0.0523572  
H16      H      0.056810000000     0.645710000000     0.276430000000     0.0211426  
H17      H      0.150920000000     0.534860000000     0.418750000000     0.0363175  
H18      H      0.226940000000     0.572220000000     0.483000000000     0.0363058  
H19      H      0.231320000000     0.751530000000     0.482840000000     0.0364278  
H20      H      0.151310000000     0.712160000000     0.420870000000     0.0364142  
H21      H      0.333720000000     0.642370000000     0.500480000000     0.0527989  
H22      H      0.408420000000     0.676500000000     0.565180000000     0.0249167  
H23      H      0.324960000000     0.776940000000     0.627010000000     0.0211253  
H24      H      0.247390000000     0.741160000000     0.563890000000     0.0523758  
H25      H      0.692820000000     0.987490000000     0.612680000000     0.0207437  
H26      H      0.730690000000     0.064630000000     0.548480000000     0.0536958  
H27      H      0.539600000000     0.021960000000     0.523170000000     0.0539469  
H28      H      0.502520000000     0.943510000000     0.586520000000     0.0228732  
H29      H      0.694870000000     0.045640000000     0.449730000000     0.0380942  
H30      H      0.731440000000     0.121390000000     0.384550000000     0.0362979  
H31      H      0.672330000000     0.236000000000     0.461580000000     0.0363816  
H32      H      0.631890000000     0.157200000000     0.524960000000     0.0377112  
H33      H      0.808400000000     0.219830000000     0.359640000000     0.0519363  
H34      H      0.844920000000     0.293880000000     0.294510000000     0.0204354  
H35      H      0.699780000000     0.338180000000     0.322150000000     0.0218467  
H36      H      0.658910000000     0.261100000000     0.385660000000     0.051847   
H37      H      0.682200000000     0.935070000000     0.822550000000     0.021943   
H38      H      0.722610000000     0.010870000000     0.887770000000     0.0537475  
H39      H      0.576170000000     0.055610000000     0.861930000000     0.0539339  
H40      H      0.537970000000     0.981280000000     0.796010000000     0.0205075  
H41      H      0.766770000000     0.147230000000     0.885690000000     0.0378199  
H42      H      0.804820000000     0.226800000000     0.948420000000     0.0366233  
H43      H      0.630600000000     0.111050000000     0.025930000000     0.0362744  
H44      H      0.591640000000     0.034270000000     0.961280000000     0.0378401  
H45      H      0.843320000000     0.252960000000     0.024300000000     0.0522157  
H46      H      0.879690000000     0.332680000000     0.085720000000     0.0228834  
H47      H      0.689170000000     0.287110000000     0.112440000000     0.0207255  
H48      H      0.651360000000     0.210010000000     0.049160000000     0.052079   
H49      H      0.700900000000     0.446720000000     0.078370000000     0.0219932  
H50      H      0.660120000000     0.482380000000     0.014920000000     0.052087   
H51      H      0.810230000000     0.675360000000     0.040570000000     0.0520874  
H52      H      0.846760000000     0.638310000000     0.105670000000     0.0204846  
H53      H      0.673920000000     0.521100000000     0.938900000000     0.0365493  
H54      H      0.632950000000     0.558660000000     0.875770000000     0.0378607  
H55      H      0.695650000000     0.733990000000     0.951230000000     0.0382595  
H56      H      0.732800000000     0.695550000000     0.016170000000     0.036374   
H57      H      0.539960000000     0.601130000000     0.879500000000     0.0541271  
H58      H      0.502380000000     0.641690000000     0.816340000000     0.0229963  
H59      H      0.692950000000     0.788330000000     0.787210000000     0.0207943  
H60      H      0.731360000000     0.749890000000     0.851190000000     0.0538997  
H61      H      0.679720000000     0.827710000000     0.578360000000     0.0218703  
H62      H      0.720320000000     0.791870000000     0.514940000000     0.0518192  
H63      H      0.570460000000     0.598930000000     0.541090000000     0.0519081  
H64      H      0.534160000000     0.636200000000     0.606230000000     0.0204274  
H65      H      0.707060000000     0.753250000000     0.439160000000     0.036375   
H66      H      0.748110000000     0.715770000000     0.376070000000     0.0377382  
H67      H      0.684340000000     0.539930000000     0.451070000000     0.0380866  
H68      H      0.647150000000     0.578300000000     0.516010000000     0.0362997  
H69      H      0.840590000000     0.673900000000     0.378950000000     0.0539418  
H70      H      0.878360000000     0.633630000000     0.315690000000     0.0228385  
H71      H      0.688160000000     0.485440000000     0.287540000000     0.0208439  
H72      H      0.649600000000     0.523560000000     0.351630000000     0.053764   
N1       N      0.010620000000     0.547550000000     0.100820000000    -0.215339   
N2       N      0.372150000000     0.725260000000     0.801890000000    -0.215338   
N3       N      0.008220000000     0.549570000000     0.301740000000    -0.215973   
N4       N      0.371860000000     0.728770000000     0.601030000000    -0.21603    
N5       N      0.594960000000     0.959940000000     0.604360000000    -0.216045   
N6       N      0.774830000000     0.321170000000     0.303330000000    -0.216757   
N7       N      0.607470000000     0.953010000000     0.804330000000    -0.217225   
N8       N      0.787100000000     0.315430000000     0.103820000000    -0.216252   
N9       N      0.776310000000     0.539910000000     0.097020000000    -0.217092   
N10      N      0.594910000000     0.717780000000     0.797040000000    -0.216124   
N11      N      0.604450000000     0.734590000000     0.597290000000    -0.21666    
N12      N      0.786030000000     0.556770000000     0.296850000000    -0.215996   
O1       O      0.612340000000     0.782460000000     0.733110000000    -0.496645   
O2       O      0.515550000000     0.880090000000     0.647440000000    -0.503225   
O3       O      0.515200000000     0.717560000000     0.754820000000    -0.503197   
O4       O      0.542530000000     0.715550000000     0.663010000000    -0.499064   
O5       O      0.607760000000     0.875820000000     0.758740000000    -0.504514   
O6       O      0.415600000000     0.784540000000     0.669560000000    -0.494833   
O7       O      0.524580000000     0.803330000000     0.700990000000    -0.872456   
O8       O      0.452460000000     0.807650000000     0.761320000000    -0.501462   
O9       O      0.415320000000     0.712610000000     0.733480000000    -0.493409   
O10      O      0.605910000000     0.813260000000     0.642170000000    -0.503536   
O11      O      0.450900000000     0.725690000000     0.641540000000    -0.502964   
O12      O      0.544730000000     0.910020000000     0.738960000000    -0.500837   
O13      O      0.612870000000     0.912500000000     0.667780000000    -0.496545   
O14      O      0.768710000000     0.491930000000     0.233040000000    -0.496776   
O15      O      0.866380000000     0.395890000000     0.146500000000    -0.503683   
O16      O      0.865860000000     0.557590000000     0.254300000000    -0.502537   
O17      O      0.838570000000     0.559300000000     0.162500000000    -0.500479   
O18      O      0.774210000000     0.398860000000     0.258450000000    -0.5031     
O19      O      0.966320000000     0.491420000000     0.169120000000    -0.494487   
O20      O      0.856870000000     0.471890000000     0.200460000000    -0.872326   
O21      O      0.928900000000     0.467390000000     0.260540000000    -0.503525   
O22      O      0.965710000000     0.562650000000     0.233160000000    -0.493994   
O23      O      0.774960000000     0.461440000000     0.142040000000    -0.50414    
O24      O      0.930680000000     0.549840000000     0.140930000000    -0.500478   
O25      O      0.837180000000     0.364950000000     0.237860000000    -0.500298   
O26      O      0.769010000000     0.362620000000     0.167280000000    -0.496378   


