data_structure

_audit_creation_method RASPA-1.0
_audit_creation_date 2023-6-4
_audit_author_name 'Poobodin Mano'

_cell_length_a    24.1177
_cell_length_b    23.9942
_cell_length_c    57.2299
_cell_angle_alpha 90
_cell_angle_beta  90
_cell_angle_gamma 120
_cell_volume      28681.1

_symmetry_cell_setting          triclinic
_symmetry_space_group_name_Hall 'P 1'
_symmetry_space_group_name_H-M  'P 1'
_symmetry_Int_Tables_number     1

_symmetry_equiv_pos_as_xyz 'x,y,z'

loop_
_atom_site_label
_atom_site_type_symbol
_atom_site_fract_x
_atom_site_fract_y
_atom_site_fract_z
_atom_site_charge
C1       C      0.561600000000     0.730160000000     0.265270000000     0.539322   
C2       C      0.549630000000     0.720430000000     0.328250000000     0.536191   
C3       C      0.391890000000     0.734440000000     0.327870000000     0.528759   
C4       C      0.555920000000     0.895260000000     0.265180000000     0.525553   
C5       C      0.564250000000     0.895150000000     0.328140000000     0.525043   
C6       C      0.392830000000     0.727190000000     0.264550000000     0.531517   
C7       C      0.948020000000     0.506640000000     0.077440000000     0.521256   
C8       C      0.947750000000     0.512250000000     0.014270000000     0.52648    
C9       C      0.772810000000     0.497890000000     0.014550000000     0.528554   
C10      C      0.781240000000     0.340610000000     0.078200000000     0.534599   
C11      C      0.789220000000     0.339760000000     0.015040000000     0.533334   
C12      C      0.785160000000     0.511370000000     0.077240000000     0.525497   
C13      C      0.310210000000     0.730040000000     0.382830000000    -0.169282   
C14      C      0.036610000000     0.515530000000     0.994860000000     0.0838542  
C15      C      0.986360000000     0.569940000000     0.978550000000     0.0823346  
C16      C      0.080740000000     0.536520000000     0.976540000000    -0.0969088  
C17      C      0.102870000000     0.588550000000     0.915940000000    -0.037867   
C18      C      0.147150000000     0.610090000000     0.397610000000    -0.0288723  
C19      C      0.123850000000     0.597390000000     0.939250000000    -0.00566857 
C20      C      0.028990000000     0.590700000000     0.959730000000    -0.0960377  
C21      C      0.213150000000     0.641970000000     0.402300000000    -0.0206035  
C22      C      0.255520000000     0.626000000000     0.364510000000    -0.116872   
C23      C      0.234100000000     0.651150000000     0.425610000000    -0.0292101  
C24      C      0.300680000000     0.649710000000     0.346520000000     0.0891416  
C25      C      0.354310000000     0.752920000000     0.364410000000     0.248062   
C26      C      0.189830000000     0.628530000000     0.943920000000    -0.0382813  
C27      C      0.077120000000     0.574410000000     0.958710000000     0.0532591  
C28      C      0.260160000000     0.666280000000     0.382930000000     0.0841283  
C29      C      0.310790000000     0.652180000000     0.209390000000    -0.168992   
C30      C      0.988230000000     0.489060000000     0.112890000000     0.0799785  
C31      C      0.033930000000     0.594570000000     0.097420000000     0.0795329  
C32      C      0.030720000000     0.511620000000     0.131660000000    -0.0970496  
C33      C      0.146510000000     0.662400000000     0.162440000000    -0.0380067  
C34      C      0.191450000000     0.684650000000     0.180580000000    -0.0291954  
C35      C      0.124540000000     0.601090000000     0.152630000000    -0.00532173 
C36      C      0.077940000000     0.618680000000     0.115810000000    -0.0965195  
C37      C      0.215100000000     0.645920000000     0.189500000000    -0.0196932  
C38      C      0.261200000000     0.707330000000     0.226910000000    -0.115535   
C39      C      0.192620000000     0.584440000000     0.179800000000    -0.0290134  
C40      C      0.305640000000     0.726850000000     0.245120000000     0.0890454  
C41      C      0.353790000000     0.671130000000     0.228070000000     0.248479   
C42      C      0.148490000000     0.562610000000     0.161510000000    -0.038005   
C43      C      0.077010000000     0.577040000000     0.133210000000     0.051282   
C44      C      0.263050000000     0.669100000000     0.208780000000     0.0831281  
C45      C      0.773130000000     0.222250000000     0.121060000000    -0.170853   
C46      C      0.537210000000     0.947780000000     0.233450000000     0.0807281  
C47      C      0.642990000000     0.971960000000     0.242180000000     0.0814719  
C48      C      0.559530000000     0.991920000000     0.215070000000    -0.0956855  
C49      C      0.611990000000     0.063350000000     0.169940000000    -0.0377686  
C50      C      0.634260000000     0.108110000000     0.151730000000    -0.0289309  
C51      C      0.649630000000     0.073320000000     0.190030000000    -0.00503774 
C52      C      0.666820000000     0.015400000000     0.223580000000    -0.0962192  
C53      C      0.695190000000     0.162960000000     0.152930000000    -0.0212232  
C54      C      0.686360000000     0.242610000000     0.127660000000    -0.117953   
C55      C      0.733500000000     0.172820000000     0.172640000000    -0.0291129  
C56      C      0.709040000000     0.286930000000     0.109360000000     0.0898931  
C57      C      0.794180000000     0.266020000000     0.102460000000     0.250644   
C58      C      0.710720000000     0.128880000000     0.191130000000    -0.0378969  
C59      C      0.625100000000     0.026340000000     0.209770000000     0.0516479  
C60      C      0.718600000000     0.209960000000     0.133640000000     0.0853965  
C61      C      0.785420000000     0.257380000000     0.960190000000    -0.168751   
C62      C      0.623420000000     0.934140000000     0.363500000000     0.0792379  
C63      C      0.568160000000     0.984340000000     0.347910000000     0.083042   
C64      C      0.644840000000     0.976890000000     0.382330000000    -0.0979297  
C65      C      0.643370000000     0.050250000000     0.926510000000    -0.0378609  
C66      C      0.665310000000     0.094430000000     0.944940000000    -0.0297534  
C67      C      0.651920000000     0.071750000000     0.403260000000    -0.0061079  
C68      C      0.589840000000     0.028670000000     0.366250000000    -0.0968894  
C69      C      0.697330000000     0.160850000000     0.940400000000    -0.0204986  
C70      C      0.681490000000     0.203180000000     0.978200000000    -0.116842   
C71      C      0.706310000000     0.182340000000     0.417140000000    -0.02934    
C72      C      0.705100000000     0.248310000000     0.996260000000     0.0905705  
C73      C      0.808380000000     0.301080000000     0.978810000000     0.248613   
C74      C      0.683240000000     0.138150000000     0.398740000000    -0.0378351  
C75      C      0.628440000000     0.025070000000     0.383730000000     0.0525538  
C76      C      0.721710000000     0.207690000000     0.959870000000     0.0843655  
C77      C      0.653460000000     0.705640000000     0.371980000000    -0.171093   
C78      C      0.698170000000     0.473990000000     0.983600000000     0.0802888  
C79      C      0.777130000000     0.582130000000     0.991370000000     0.0816315  
C80      C      0.673010000000     0.493920000000     0.965560000000    -0.0959355  
C81      C      0.647770000000     0.543920000000     0.420710000000    -0.037592   
C82      C      0.624770000000     0.565730000000     0.402530000000    -0.028763   
C83      C      0.675230000000     0.581980000000     0.940780000000    -0.00527353 
C84      C      0.754160000000     0.603580000000     0.973140000000    -0.0968502  
C85      C      0.629950000000     0.626470000000     0.403830000000    -0.0212531  
C86      C      0.544810000000     0.620660000000     0.377520000000    -0.117709   
C87      C      0.656960000000     0.664560000000     0.923730000000    -0.0293522  
C88      C      0.526020000000     0.645440000000     0.359020000000     0.0907064  
C89      C      0.633640000000     0.728810000000     0.353220000000     0.251734   
C90      C      0.678650000000     0.642270000000     0.942140000000    -0.0379419  
C91      C      0.700970000000     0.559500000000     0.960050000000     0.0516962  
C92      C      0.609010000000     0.651090000000     0.384150000000     0.0859728  
C93      C      0.576210000000     0.621020000000     0.223540000000    -0.169762   
C94      C      0.805310000000     0.585310000000     0.108240000000     0.0794195  
C95      C      0.699480000000     0.501160000000     0.100980000000     0.0807372  
C96      C      0.783920000000     0.607910000000     0.126660000000    -0.0957464  
C97      C      0.734510000000     0.629210000000     0.172180000000    -0.0374867  
C98      C      0.712690000000     0.651450000000     0.190610000000    -0.0290463  
C99      C      0.695230000000     0.598880000000     0.152630000000    -0.00518438 
C100     C      0.676650000000     0.521530000000     0.119650000000    -0.0962318  
C101     C      0.650680000000     0.642510000000     0.190190000000    -0.0206576  
C102     C      0.655930000000     0.730390000000     0.215010000000    -0.116593   
C103     C      0.610950000000     0.611750000000     0.170990000000    -0.0290925  
C104     C      0.632630000000     0.750860000000     0.233470000000     0.0931339  
C105     C      0.554540000000     0.642640000000     0.242260000000     0.256249   
C106     C      0.633180000000     0.590840000000     0.152280000000    -0.0375726  
C107     C      0.718830000000     0.575850000000     0.132760000000     0.0511773  
C108     C      0.627300000000     0.664980000000     0.209840000000     0.0869812  
C109     C      0.561600000000     0.730160000000     0.765270000000     0.53935    
C110     C      0.549630000000     0.720430000000     0.828250000000     0.536218   
C111     C      0.391890000000     0.734440000000     0.827870000000     0.528761   
C112     C      0.555920000000     0.895260000000     0.765180000000     0.525565   
C113     C      0.564250000000     0.895150000000     0.828140000000     0.525132   
C114     C      0.392830000000     0.727190000000     0.764550000000     0.531614   
C115     C      0.948020000000     0.506640000000     0.577440000000     0.521256   
C116     C      0.947750000000     0.512250000000     0.514270000000     0.526676   
C117     C      0.772810000000     0.497890000000     0.514550000000     0.528604   
C118     C      0.781240000000     0.340610000000     0.578200000000     0.534612   
C119     C      0.789220000000     0.339760000000     0.515040000000     0.533381   
C120     C      0.785160000000     0.511370000000     0.577250000000     0.525113   
C121     C      0.310210000000     0.730040000000     0.882830000000    -0.169207   
C122     C      0.036610000000     0.515530000000     0.494860000000     0.0838306  
C123     C      0.986360000000     0.569940000000     0.478550000000     0.0822685  
C124     C      0.080740000000     0.536520000000     0.476540000000    -0.0969035  
C125     C      0.102870000000     0.588550000000     0.415940000000    -0.037882   
C126     C      0.147150000000     0.610090000000     0.897610000000    -0.0289252  
C127     C      0.123850000000     0.597390000000     0.439250000000    -0.00565504 
C128     C      0.028990000000     0.590700000000     0.459730000000    -0.0960093  
C129     C      0.213150000000     0.641970000000     0.902300000000    -0.0205719  
C130     C      0.255520000000     0.626000000000     0.864510000000    -0.116779   
C131     C      0.234100000000     0.651150000000     0.925610000000    -0.0292255  
C132     C      0.300680000000     0.649710000000     0.846520000000     0.0890906  
C133     C      0.354310000000     0.752920000000     0.864420000000     0.247995   
C134     C      0.189830000000     0.628530000000     0.443920000000    -0.0382959  
C135     C      0.077120000000     0.574410000000     0.458710000000     0.053242   
C136     C      0.260160000000     0.666280000000     0.882940000000     0.0840479  
C137     C      0.310790000000     0.652180000000     0.709390000000    -0.169008   
C138     C      0.988230000000     0.489060000000     0.612890000000     0.0799783  
C139     C      0.033930000000     0.594570000000     0.597420000000     0.0795333  
C140     C      0.030720000000     0.511620000000     0.631660000000    -0.0970489  
C141     C      0.146510000000     0.662400000000     0.662440000000    -0.0380094  
C142     C      0.191450000000     0.684650000000     0.680580000000    -0.0291899  
C143     C      0.124540000000     0.601090000000     0.652630000000    -0.00531875 
C144     C      0.077940000000     0.618680000000     0.615810000000    -0.0965176  
C145     C      0.215100000000     0.645920000000     0.689500000000    -0.0197061  
C146     C      0.261200000000     0.707330000000     0.726910000000    -0.115616   
C147     C      0.192620000000     0.584440000000     0.679800000000    -0.0290069  
C148     C      0.305640000000     0.726850000000     0.745110000000     0.0891149  
C149     C      0.353790000000     0.671130000000     0.728070000000     0.248482   
C150     C      0.148490000000     0.562610000000     0.661510000000    -0.0380077  
C151     C      0.077010000000     0.577040000000     0.633210000000     0.0512815  
C152     C      0.263050000000     0.669100000000     0.708780000000     0.0831556  
C153     C      0.773130000000     0.222250000000     0.621060000000    -0.170929   
C154     C      0.537210000000     0.947780000000     0.733450000000     0.0807279  
C155     C      0.642990000000     0.971960000000     0.742180000000     0.0814724  
C156     C      0.559530000000     0.991920000000     0.715070000000    -0.0956859  
C157     C      0.611990000000     0.063350000000     0.669940000000    -0.037778   
C158     C      0.634260000000     0.108110000000     0.651730000000    -0.0289185  
C159     C      0.649630000000     0.073320000000     0.690030000000    -0.00503492 
C160     C      0.666820000000     0.015400000000     0.723580000000    -0.0962187  
C161     C      0.695190000000     0.162960000000     0.652930000000    -0.0212357  
C162     C      0.686360000000     0.242610000000     0.627660000000    -0.117962   
C163     C      0.733500000000     0.172820000000     0.672640000000    -0.0291066  
C164     C      0.709040000000     0.286930000000     0.609360000000     0.0898863  
C165     C      0.794180000000     0.266020000000     0.602470000000     0.2506     
C166     C      0.710720000000     0.128880000000     0.691130000000    -0.0379     
C167     C      0.625100000000     0.026340000000     0.709770000000     0.0516456  
C168     C      0.718600000000     0.209960000000     0.633640000000     0.0854266  
C169     C      0.785420000000     0.257380000000     0.460190000000    -0.168745   
C170     C      0.623420000000     0.934140000000     0.863490000000     0.0792817  
C171     C      0.568160000000     0.984340000000     0.847910000000     0.0830536  
C172     C      0.644840000000     0.976890000000     0.882330000000    -0.0979236  
C173     C      0.643370000000     0.050250000000     0.426510000000    -0.0378611  
C174     C      0.665310000000     0.094430000000     0.444940000000    -0.0297578  
C175     C      0.651920000000     0.071750000000     0.903260000000    -0.00610644 
C176     C      0.589840000000     0.028670000000     0.866250000000    -0.0968953  
C177     C      0.697330000000     0.160850000000     0.440400000000    -0.0204973  
C178     C      0.681490000000     0.203180000000     0.478200000000    -0.116822   
C179     C      0.706310000000     0.182340000000     0.917140000000    -0.0293376  
C180     C      0.705100000000     0.248310000000     0.496260000000     0.0905055  
C181     C      0.808380000000     0.301080000000     0.478810000000     0.248604   
C182     C      0.683240000000     0.138150000000     0.898740000000    -0.0378356  
C183     C      0.628440000000     0.025070000000     0.883730000000     0.0525523  
C184     C      0.721710000000     0.207690000000     0.459870000000     0.0843496  
C185     C      0.653460000000     0.705640000000     0.871980000000    -0.171093   
C186     C      0.698170000000     0.473990000000     0.483600000000     0.0802818  
C187     C      0.777130000000     0.582130000000     0.491370000000     0.081564   
C188     C      0.673010000000     0.493920000000     0.465560000000    -0.0959316  
C189     C      0.647770000000     0.543920000000     0.920710000000    -0.0375898  
C190     C      0.624770000000     0.565730000000     0.902530000000    -0.0287631  
C191     C      0.675230000000     0.581980000000     0.440780000000    -0.0052711  
C192     C      0.754160000000     0.603580000000     0.473140000000    -0.0968265  
C193     C      0.629950000000     0.626470000000     0.903830000000    -0.0212524  
C194     C      0.544810000000     0.620660000000     0.877520000000    -0.11771    
C195     C      0.656960000000     0.664560000000     0.423730000000    -0.0293528  
C196     C      0.526020000000     0.645440000000     0.859020000000     0.0907072  
C197     C      0.633640000000     0.728810000000     0.853220000000     0.251734   
C198     C      0.678650000000     0.642270000000     0.442140000000    -0.0379449  
C199     C      0.700970000000     0.559500000000     0.460050000000     0.0516837  
C200     C      0.609010000000     0.651090000000     0.884150000000     0.0859733  
C201     C      0.576210000000     0.621020000000     0.723540000000    -0.169763   
C202     C      0.805310000000     0.585310000000     0.608250000000     0.0794002  
C203     C      0.699480000000     0.501160000000     0.600980000000     0.0807236  
C204     C      0.783920000000     0.607910000000     0.626660000000    -0.0957355  
C205     C      0.734510000000     0.629210000000     0.672180000000    -0.0374878  
C206     C      0.712690000000     0.651450000000     0.690610000000    -0.0290454  
C207     C      0.695230000000     0.598880000000     0.652630000000    -0.00518257 
C208     C      0.676650000000     0.521530000000     0.619650000000    -0.0961893  
C209     C      0.650680000000     0.642510000000     0.690190000000    -0.0206579  
C210     C      0.655930000000     0.730390000000     0.715010000000    -0.116594   
C211     C      0.610950000000     0.611750000000     0.670990000000    -0.0290916  
C212     C      0.632630000000     0.750860000000     0.733470000000     0.0931347  
C213     C      0.554540000000     0.642640000000     0.742260000000     0.25625    
C214     C      0.633180000000     0.590840000000     0.652280000000    -0.0375711  
C215     C      0.718830000000     0.575850000000     0.632770000000     0.0511384  
C216     C      0.627300000000     0.664980000000     0.709840000000     0.0869819  
Fe1      Fe     0.460930000000     0.703640000000     0.296100000000     1.35555    
Fe2      Fe     0.464430000000     0.825400000000     0.296630000000     1.35495    
Fe3      Fe     0.582390000000     0.822040000000     0.296850000000     1.36121    
Fe4      Fe     0.875490000000     0.531610000000     0.045250000000     1.35267    
Fe5      Fe     0.757390000000     0.408980000000     0.046630000000     1.35463    
Fe6      Fe     0.879140000000     0.413630000000     0.046410000000     1.35722    
Fe7      Fe     0.460930000000     0.703640000000     0.796100000000     1.35582    
Fe8      Fe     0.464430000000     0.825400000000     0.796630000000     1.355      
Fe9      Fe     0.582390000000     0.822040000000     0.796850000000     1.36148    
Fe10     Fe     0.875490000000     0.531610000000     0.545250000000     1.35269    
Fe11     Fe     0.757390000000     0.408980000000     0.546630000000     1.35469    
Fe12     Fe     0.879140000000     0.413630000000     0.546410000000     1.35724    
H1       H      0.949990000000     0.583920000000     0.978800000000     0.0260568  
H2       H      0.295190000000     0.616630000000     0.332620000000     0.0198027  
H3       H      0.207160000000     0.636190000000     0.961760000000     0.0387113  
H4       H      0.129880000000     0.602760000000     0.379760000000     0.0370389  
H5       H      0.217590000000     0.576150000000     0.364140000000     0.058732   
H6       H      0.052210000000     0.564390000000     0.911920000000     0.0407314  
H7       H      0.314940000000     0.762400000000     0.396890000000     0.0823155  
H8       H      0.024970000000     0.620220000000     0.946260000000     0.0549611  
H9       H      0.117120000000     0.522610000000     0.976220000000     0.0544363  
H10      H      0.284750000000     0.675330000000     0.429650000000     0.0363319  
H11      H      0.040870000000     0.485970000000     0.008280000000     0.0224919  
H12      H      0.438340000000     0.815060000000     0.373680000000     0.154949   
H13      H      0.036560000000     0.628310000000     0.084250000000     0.0214822  
H14      H      0.301880000000     0.756020000000     0.258810000000     0.0204444  
H15      H      0.133700000000     0.515600000000     0.154210000000     0.0376115  
H16      H      0.208090000000     0.732520000000     0.187410000000     0.0352837  
H17      H      0.224840000000     0.721210000000     0.227370000000     0.0576283  
H18      H      0.128650000000     0.693140000000     0.156290000000     0.0375797  
H19      H      0.315320000000     0.624360000000     0.195380000000     0.0810411  
H20      H      0.113220000000     0.669460000000     0.116050000000     0.0527175  
H21      H      0.026830000000     0.477720000000     0.144950000000     0.0525812  
H22      H      0.208700000000     0.552640000000     0.186430000000     0.0351251  
H23      H      0.953440000000     0.438040000000     0.112410000000     0.021437   
H24      H      0.379400000000     0.610390000000     0.235260000000     0.145739   
H25      H      0.676960000000     0.964990000000     0.252370000000     0.0220645  
H26      H      0.682460000000     0.311210000000     0.105330000000     0.0198033  
H27      H      0.740760000000     0.139210000000     0.206400000000     0.0378853  
H28      H      0.604250000000     0.099450000000     0.136520000000     0.0370577  
H29      H      0.644090000000     0.234270000000     0.137210000000     0.0593164  
H30      H      0.565440000000     0.020650000000     0.168060000000     0.0385506  
H31      H      0.799060000000     0.197590000000     0.125480000000     0.0828332  
H32      H      0.717650000000     0.039510000000     0.219960000000     0.0530493  
H33      H      0.525310000000     0.999430000000     0.205360000000     0.0531463  
H34      H      0.780570000000     0.215220000000     0.173920000000     0.0366246  
H35      H      0.486140000000     0.922280000000     0.236860000000     0.0243682  
H36      H      0.884350000000     0.312870000000     0.099080000000     0.150435   
H37      H      0.538040000000     0.988520000000     0.334780000000     0.025051   
H38      H      0.671920000000     0.243080000000     0.010030000000     0.0200969  
H39      H      0.690660000000     0.155850000000     0.380940000000     0.0393305  
H40      H      0.658120000000     0.076770000000     0.962740000000     0.0364884  
H41      H      0.631700000000     0.165490000000     0.978420000000     0.0589198  
H42      H      0.619080000000     0.999250000000     0.930420000000     0.0387442  
H43      H      0.817700000000     0.261990000000     0.946190000000     0.0822233  
H44      H      0.575890000000     0.065130000000     0.366890000000     0.055488   
H45      H      0.674880000000     0.972900000000     0.395530000000     0.0533783  
H46      H      0.730620000000     0.233340000000     0.413230000000     0.0386641  
H47      H      0.637440000000     0.897690000000     0.362960000000     0.0201276  
H48      H      0.895590000000     0.331590000000     0.985960000000     0.152119   
H49      H      0.818280000000     0.618020000000     0.001010000000     0.0211517  
H50      H      0.475600000000     0.620400000000     0.354490000000     0.0211431  
H51      H      0.697820000000     0.672400000000     0.957460000000     0.0376849  
H52      H      0.604440000000     0.535910000000     0.387170000000     0.0383144  
H53      H      0.509240000000     0.578370000000     0.386750000000     0.0596869  
H54      H      0.645200000000     0.497830000000     0.418720000000     0.0387325  
H55      H      0.703580000000     0.730140000000     0.376900000000     0.0835331  
H56      H      0.778740000000     0.654540000000     0.969250000000     0.0530113  
H57      H      0.631260000000     0.457920000000     0.956300000000     0.0530968  
H58      H      0.660890000000     0.711450000000     0.925080000000     0.0362814  
H59      H      0.675000000000     0.422870000000     0.987280000000     0.0236282  
H60      H      0.680280000000     0.819590000000     0.350390000000     0.150725   
H61      H      0.665130000000     0.458900000000     0.091380000000     0.0211868  
H62      H      0.656080000000     0.802230000000     0.236690000000     0.0227156  
H63      H      0.601800000000     0.569140000000     0.137450000000     0.0379521  
H64      H      0.743860000000     0.674650000000     0.205410000000     0.0380954  
H65      H      0.695650000000     0.765620000000     0.204650000000     0.0603779  
H66      H      0.781930000000     0.635150000000     0.173500000000     0.0383206  
H67      H      0.553510000000     0.569920000000     0.219910000000     0.0838748  
H68      H      0.626210000000     0.493990000000     0.123880000000     0.0526707  
H69      H      0.818460000000     0.650880000000     0.135790000000     0.0526816  
H70      H      0.563000000000     0.604840000000     0.170310000000     0.0386004  
H71      H      0.856050000000     0.611610000000     0.104230000000     0.0231443  
H72      H      0.465520000000     0.590800000000     0.247740000000     0.154202   
H73      H      0.949990000000     0.583920000000     0.478800000000     0.0260646  
H74      H      0.295190000000     0.616630000000     0.832620000000     0.0198143  
H75      H      0.207160000000     0.636190000000     0.461760000000     0.0387098  
H76      H      0.129880000000     0.602760000000     0.879770000000     0.0370733  
H77      H      0.217590000000     0.576150000000     0.864130000000     0.0587069  
H78      H      0.052210000000     0.564390000000     0.411910000000     0.0407294  
H79      H      0.314940000000     0.762400000000     0.896900000000     0.0822485  
H80      H      0.024970000000     0.620220000000     0.446260000000     0.0549522  
H81      H      0.117120000000     0.522610000000     0.476220000000     0.0544268  
H82      H      0.284750000000     0.675330000000     0.929650000000     0.0363365  
H83      H      0.040870000000     0.485970000000     0.508270000000     0.0225214  
H84      H      0.438340000000     0.815060000000     0.873680000000     0.154936   
H85      H      0.036560000000     0.628310000000     0.584250000000     0.0214869  
H86      H      0.301880000000     0.756020000000     0.758810000000     0.0204455  
H87      H      0.133700000000     0.515600000000     0.654210000000     0.0376139  
H88      H      0.208090000000     0.732520000000     0.687410000000     0.0352795  
H89      H      0.224840000000     0.721210000000     0.727360000000     0.0576502  
H90      H      0.128650000000     0.693140000000     0.656290000000     0.0375811  
H91      H      0.315320000000     0.624360000000     0.695380000000     0.0810459  
H92      H      0.113220000000     0.669460000000     0.616050000000     0.0527203  
H93      H      0.026830000000     0.477720000000     0.644950000000     0.0525809  
H94      H      0.208700000000     0.552640000000     0.686430000000     0.035124   
H95      H      0.953440000000     0.438040000000     0.612410000000     0.0214368  
H96      H      0.379400000000     0.610390000000     0.735260000000     0.145741   
H97      H      0.676960000000     0.964990000000     0.752370000000     0.0220642  
H98      H      0.682460000000     0.311210000000     0.605330000000     0.0198019  
H99      H      0.740760000000     0.139210000000     0.706400000000     0.0378859  
H100     H      0.604250000000     0.099450000000     0.636520000000     0.0370596  
H101     H      0.644090000000     0.234270000000     0.637210000000     0.059319   
H102     H      0.565440000000     0.020650000000     0.668070000000     0.0385566  
H103     H      0.799060000000     0.197590000000     0.625480000000     0.082856   
H104     H      0.717650000000     0.039510000000     0.719960000000     0.0530493  
H105     H      0.525310000000     0.999430000000     0.705360000000     0.0531443  
H106     H      0.780570000000     0.215220000000     0.673920000000     0.036622   
H107     H      0.486140000000     0.922280000000     0.736860000000     0.0243663  
H108     H      0.884350000000     0.312870000000     0.599080000000     0.150414   
H109     H      0.538040000000     0.988520000000     0.834780000000     0.025047   
H110     H      0.671920000000     0.243080000000     0.510030000000     0.0201479  
H111     H      0.690660000000     0.155850000000     0.880940000000     0.0393307  
H112     H      0.658120000000     0.076770000000     0.462740000000     0.0364834  
H113     H      0.631700000000     0.165490000000     0.478410000000     0.0589075  
H114     H      0.619080000000     0.999250000000     0.430420000000     0.0387414  
H115     H      0.817700000000     0.261990000000     0.446190000000     0.0822197  
H116     H      0.575890000000     0.065130000000     0.866890000000     0.0554899  
H117     H      0.674880000000     0.972900000000     0.895530000000     0.0533784  
H118     H      0.730620000000     0.233340000000     0.913230000000     0.0386644  
H119     H      0.637440000000     0.897690000000     0.862960000000     0.0201005  
H120     H      0.895590000000     0.331590000000     0.485960000000     0.15211    
H121     H      0.818280000000     0.618020000000     0.501010000000     0.0212055  
H122     H      0.475600000000     0.620400000000     0.854490000000     0.0211419  
H123     H      0.697820000000     0.672400000000     0.457460000000     0.0376809  
H124     H      0.604440000000     0.535910000000     0.887170000000     0.0383147  
H125     H      0.509240000000     0.578370000000     0.886750000000     0.059688   
H126     H      0.645200000000     0.497830000000     0.918720000000     0.0387329  
H127     H      0.703580000000     0.730140000000     0.876900000000     0.0835336  
H128     H      0.778740000000     0.654540000000     0.469250000000     0.0529978  
H129     H      0.631260000000     0.457920000000     0.456300000000     0.0530922  
H130     H      0.660890000000     0.711450000000     0.425080000000     0.0362791  
H131     H      0.675000000000     0.422870000000     0.487280000000     0.0236165  
H132     H      0.680280000000     0.819590000000     0.850390000000     0.150724   
H133     H      0.665130000000     0.458900000000     0.591380000000     0.021179   
H134     H      0.656080000000     0.802230000000     0.736690000000     0.0227147  
H135     H      0.601800000000     0.569140000000     0.637450000000     0.0379564  
H136     H      0.743860000000     0.674650000000     0.705410000000     0.0380949  
H137     H      0.695650000000     0.765620000000     0.704650000000     0.0603788  
H138     H      0.781930000000     0.635150000000     0.673500000000     0.03832    
H139     H      0.553510000000     0.569920000000     0.719910000000     0.0838748  
H140     H      0.626210000000     0.493990000000     0.623880000000     0.0526615  
H141     H      0.818460000000     0.650880000000     0.635790000000     0.0526797  
H142     H      0.563000000000     0.604840000000     0.670310000000     0.0386017  
H143     H      0.856050000000     0.611610000000     0.604230000000     0.0231567  
H144     H      0.465520000000     0.590800000000     0.747740000000     0.154202   
N1       N      0.349290000000     0.712810000000     0.346200000000    -0.242247   
N2       N      0.990140000000     0.532610000000     0.995970000000    -0.214411   
N3       N      0.351060000000     0.708260000000     0.245990000000    -0.242486   
N4       N      0.990000000000     0.530120000000     0.095820000000    -0.215788   
N5       N      0.761830000000     0.297960000000     0.096540000000    -0.243788   
N6       N      0.578660000000     0.938250000000     0.247020000000    -0.215719   
N7       N      0.768080000000     0.296690000000     0.996780000000    -0.241879   
N8       N      0.585300000000     0.937800000000     0.346430000000    -0.215942   
N9       N      0.569960000000     0.698510000000     0.346690000000    -0.243279   
N10      N      0.749400000000     0.517850000000     0.996560000000    -0.216713   
N11      N      0.582580000000     0.707620000000     0.247160000000    -0.241134   
N12      N      0.763370000000     0.532610000000     0.095390000000    -0.215942   
N13      N      0.349290000000     0.712810000000     0.846200000000    -0.242175   
N14      N      0.990140000000     0.532610000000     0.495980000000    -0.214514   
N15      N      0.351060000000     0.708260000000     0.745990000000    -0.242526   
N16      N      0.990000000000     0.530120000000     0.595820000000    -0.215788   
N17      N      0.761830000000     0.297960000000     0.596540000000    -0.24376    
N18      N      0.578660000000     0.938250000000     0.747020000000    -0.215722   
N19      N      0.768080000000     0.296690000000     0.496780000000    -0.241895   
N20      N      0.585300000000     0.937800000000     0.846430000000    -0.215993   
N21      N      0.569960000000     0.698510000000     0.846690000000    -0.243285   
N22      N      0.749400000000     0.517850000000     0.496560000000    -0.216728   
N23      N      0.582580000000     0.707620000000     0.747160000000    -0.24114    
N24      N      0.763370000000     0.532610000000     0.595390000000    -0.21596    
O1       O      0.589330000000     0.760830000000     0.313920000000    -0.48437    
O2       O      0.496660000000     0.860160000000     0.268380000000    -0.502337   
O3       O      0.490840000000     0.698270000000     0.324540000000    -0.505249   
O4       O      0.519970000000     0.691960000000     0.279600000000    -0.482079   
O5       O      0.585050000000     0.856950000000     0.325230000000    -0.503635   
O6       O      0.394050000000     0.766270000000     0.279730000000    -0.494496   
O7       O      0.502800000000     0.783750000000     0.296500000000    -0.877959   
O8       O      0.430100000000     0.793500000000     0.325010000000    -0.489808   
O9       O      0.391520000000     0.695690000000     0.312720000000    -0.495283   
O10      O      0.585420000000     0.789640000000     0.268580000000    -0.502834   
O11      O      0.428720000000     0.703860000000     0.267580000000    -0.49345    
O12      O      0.525300000000     0.894970000000     0.313300000000    -0.493928   
O13      O      0.594030000000     0.892220000000     0.279700000000    -0.494995   
O14      O      0.948280000000     0.474580000000     0.029620000000    -0.494903   
O15      O      0.757040000000     0.375810000000     0.075060000000    -0.506537   
O16      O      0.909200000000     0.532650000000     0.016790000000    -0.499898   
O17      O      0.946110000000     0.544090000000     0.062230000000    -0.492688   
O18      O      0.847950000000     0.378070000000     0.018100000000    -0.491549   
O19      O      0.746230000000     0.468220000000     0.063440000000    -0.496084   
O20      O      0.837130000000     0.451490000000     0.046130000000    -0.875214   
O21      O      0.751500000000     0.438980000000     0.018250000000    -0.503209   
O22      O      0.814200000000     0.538390000000     0.028420000000    -0.499525   
O23      O      0.912510000000     0.447000000000     0.074710000000    -0.503084   
O24      O      0.844230000000     0.536160000000     0.073480000000    -0.503581   
O25      O      0.750140000000     0.339740000000     0.029880000000    -0.495028   
O26      O      0.821120000000     0.343040000000     0.063310000000    -0.485483   
O27      O      0.402790000000     0.815930000000     0.365290000000    -0.295129   
O28      O      0.399570000000     0.653090000000     0.227530000000    -0.294951   
O29      O      0.848280000000     0.276750000000     0.090700000000    -0.299673   
O30      O      0.871230000000     0.349440000000     0.978070000000    -0.292426   
O31      O      0.679240000000     0.782980000000     0.341940000000    -0.298205   
O32      O      0.505040000000     0.597180000000     0.255490000000    -0.298778   
O33      O      0.589330000000     0.760830000000     0.813920000000    -0.484407   
O34      O      0.496660000000     0.860160000000     0.768380000000    -0.502346   
O35      O      0.490840000000     0.698270000000     0.824540000000    -0.505299   
O36      O      0.519970000000     0.691960000000     0.779600000000    -0.482115   
O37      O      0.585050000000     0.856950000000     0.825220000000    -0.503846   
O38      O      0.394050000000     0.766270000000     0.779730000000    -0.494507   
O39      O      0.502800000000     0.783750000000     0.796500000000    -0.878026   
O40      O      0.430100000000     0.793500000000     0.825010000000    -0.489807   
O41      O      0.391520000000     0.695690000000     0.812720000000    -0.495298   
O42      O      0.585420000000     0.789640000000     0.768580000000    -0.502883   
O43      O      0.428720000000     0.703860000000     0.767590000000    -0.493671   
O44      O      0.525300000000     0.894970000000     0.813300000000    -0.493937   
O45      O      0.594030000000     0.892220000000     0.779700000000    -0.495013   
O46      O      0.948280000000     0.474580000000     0.529620000000    -0.49494    
O47      O      0.757040000000     0.375810000000     0.575060000000    -0.506571   
O48      O      0.909200000000     0.532650000000     0.516790000000    -0.499936   
O49      O      0.946110000000     0.544090000000     0.562230000000    -0.492692   
O50      O      0.847950000000     0.378070000000     0.518100000000    -0.491548   
O51      O      0.746230000000     0.468220000000     0.563430000000    -0.495843   
O52      O      0.837130000000     0.451490000000     0.546130000000    -0.875228   
O53      O      0.751500000000     0.438980000000     0.518250000000    -0.503201   
O54      O      0.814200000000     0.538390000000     0.528420000000    -0.499495   
O55      O      0.912510000000     0.447000000000     0.574710000000    -0.503087   
O56      O      0.844230000000     0.536160000000     0.573480000000    -0.503425   
O57      O      0.750140000000     0.339740000000     0.529880000000    -0.495039   
O58      O      0.821120000000     0.343040000000     0.563310000000    -0.485481   
O59      O      0.402790000000     0.815930000000     0.865290000000    -0.295101   
O60      O      0.399570000000     0.653090000000     0.727530000000    -0.294965   
O61      O      0.848280000000     0.276750000000     0.590700000000    -0.299598   
O62      O      0.871230000000     0.349440000000     0.478070000000    -0.292436   
O63      O      0.679240000000     0.782980000000     0.841940000000    -0.298205   
O64      O      0.505040000000     0.597180000000     0.755490000000    -0.298778   


