data_structure

_audit_creation_method RASPA-1.0
_audit_creation_date 2023-6-4
_audit_author_name 'Poobodin Mano'

_cell_length_a    24.1073
_cell_length_b    24.0437
_cell_length_c    57.0894
_cell_angle_alpha 90
_cell_angle_beta  90
_cell_angle_gamma 120
_cell_volume      28657.3

_symmetry_cell_setting          triclinic
_symmetry_space_group_name_Hall 'P 1'
_symmetry_space_group_name_H-M  'P 1'
_symmetry_Int_Tables_number     1

_symmetry_equiv_pos_as_xyz 'x,y,z'

loop_
_atom_site_label
_atom_site_type_symbol
_atom_site_fract_x
_atom_site_fract_y
_atom_site_fract_z
_atom_site_charge
Br1      Br     0.076780000000     0.500390000000     0.025440000000    -0.235431   
Br2      Br     0.359180000000     0.584970000000     0.244590000000    -0.226843   
Br3      Br     0.703690000000     0.931070000000     0.249610000000    -0.248742   
Br4      Br     0.899570000000     0.383540000000     0.973200000000    -0.220532   
Br5      Br     0.718250000000     0.397610000000     0.971860000000    -0.230894   
Br6      Br     0.519080000000     0.570940000000     0.274980000000    -0.226185   
Br7      Br     0.076780000000     0.500390000000     0.525440000000    -0.23541    
Br8      Br     0.359180000000     0.584970000000     0.744590000000    -0.226843   
Br9      Br     0.703690000000     0.931070000000     0.749610000000    -0.248742   
Br10     Br     0.899570000000     0.383540000000     0.473200000000    -0.22054    
Br11     Br     0.718250000000     0.397610000000     0.471850000000    -0.230911   
Br12     Br     0.519080000000     0.570940000000     0.774980000000    -0.226187   
C1       C      0.555680000000     0.719960000000     0.267530000000     0.531026   
C2       C      0.551450000000     0.720160000000     0.330660000000     0.528899   
C3       C      0.394160000000     0.739060000000     0.330470000000     0.522392   
C4       C      0.558270000000     0.888490000000     0.264900000000     0.537406   
C5       C      0.571260000000     0.895090000000     0.328210000000     0.524309   
C6       C      0.390400000000     0.721740000000     0.267840000000     0.533321   
C7       C      0.776530000000     0.496530000000     0.015750000000     0.53574    
C8       C      0.778320000000     0.501790000000     0.079220000000     0.520175   
C9       C      0.946300000000     0.503360000000     0.080880000000     0.53108    
C10      C      0.795550000000     0.341040000000     0.015350000000     0.538722   
C11      C      0.780140000000     0.335770000000     0.078470000000     0.524085   
C12      C      0.952470000000     0.518050000000     0.018200000000     0.5398     
C13      C      0.095220000000     0.562100000000     0.981720000000    -0.130839   
C14      C      0.303900000000     0.657840000000     0.350910000000     0.0813094  
C15      C      0.355240000000     0.765250000000     0.364710000000     0.0792896  
C16      C      0.259430000000     0.638300000000     0.369140000000    -0.0955615  
C17      C      0.151190000000     0.624200000000     0.401330000000    -0.0346004  
C18      C      0.107860000000     0.602860000000     0.420010000000    -0.029534   
C19      C      0.217320000000     0.662410000000     0.405430000000    -0.00556923 
C20      C      0.312170000000     0.747060000000     0.383420000000    -0.0957148  
C21      C      0.129950000000     0.618390000000     0.943170000000    -0.0119736  
C22      C      0.029780000000     0.599060000000     0.963490000000    -0.103203   
C23      C      0.196030000000     0.656960000000     0.947270000000    -0.030746   
C24      C      0.987550000000     0.574750000000     0.982410000000     0.0946247  
C25      C      0.051690000000     0.537140000000     0.000340000000     0.204011   
C26      C      0.239270000000     0.679230000000     0.928560000000    -0.0346744  
C27      C      0.263400000000     0.683020000000     0.385700000000     0.0532019  
C28      C      0.084350000000     0.592940000000     0.963050000000     0.0761053  
C29      C      0.283120000000     0.623900000000     0.219860000000    -0.133354   
C30      C      0.020070000000     0.590160000000     0.104730000000     0.0851552  
C31      C      0.997030000000     0.484150000000     0.113090000000     0.0852366  
C32      C      0.062190000000     0.613780000000     0.123710000000    -0.0958701  
C33      C      0.174570000000     0.657070000000     0.156570000000    -0.0345965  
C34      C      0.218360000000     0.678920000000     0.175090000000    -0.0305439  
C35      C      0.118840000000     0.596130000000     0.157530000000    -0.00508635 
C36      C      0.039740000000     0.506270000000     0.131870000000    -0.0950007  
C37      C      0.207980000000     0.639840000000     0.194710000000    -0.0134752  
C38      C      0.274340000000     0.718100000000     0.225720000000    -0.108056   
C39      C      0.152450000000     0.579360000000     0.195870000000    -0.0304933  
C40      C      0.318670000000     0.736390000000     0.243920000000     0.0887945  
C41      C      0.328570000000     0.643800000000     0.237820000000     0.194615   
C42      C      0.107990000000     0.558000000000     0.177620000000    -0.0343828  
C43      C      0.072930000000     0.571830000000     0.137530000000     0.0546995  
C44      C      0.255910000000     0.661110000000     0.213660000000     0.0738156  
C45      C      0.665190000000     0.998290000000     0.219230000000    -0.133802   
C46      C      0.706930000000     0.280410000000     0.109400000000     0.0809742  
C47      C      0.790000000000     0.257750000000     0.100930000000     0.0821995  
C48      C      0.684260000000     0.234880000000     0.127320000000    -0.0971123  
C49      C      0.629000000000     0.103180000000     0.151980000000    -0.0358992  
C50      C      0.607090000000     0.058400000000     0.170190000000    -0.0304922  
C51      C      0.692860000000     0.153240000000     0.151510000000    -0.00603366 
C52      C      0.769440000000     0.212870000000     0.119100000000    -0.0971033  
C53      C      0.648290000000     0.063540000000     0.188600000000    -0.0127906  
C54      C      0.561640000000     0.989240000000     0.216350000000    -0.106451   
C55      C      0.712270000000     0.114260000000     0.188070000000    -0.0302217  
C56      C      0.540600000000     0.945540000000     0.234850000000     0.0878641  
C57      C      0.643370000000     0.955240000000     0.238060000000     0.197047   
C58      C      0.734440000000     0.158200000000     0.169580000000    -0.0351662  
C59      C      0.715790000000     0.200850000000     0.132350000000     0.0539748  
C60      C      0.624740000000     0.016530000000     0.208310000000     0.0726426  
C61      C      0.794900000000     0.264440000000     0.959120000000    -0.130421   
C62      C      0.634530000000     0.936240000000     0.362720000000     0.0812428  
C63      C      0.578170000000     0.985890000000     0.347750000000     0.0821496  
C64      C      0.657750000000     0.979790000000     0.381340000000    -0.0955194  
C65      C      0.660730000000     0.053410000000     0.925880000000    -0.0352442  
C66      C      0.682520000000     0.097400000000     0.944390000000    -0.0306765  
C67      C      0.665680000000     0.074660000000     0.402640000000    -0.00555915 
C68      C      0.601450000000     0.030880000000     0.365910000000    -0.096339   
C69      C      0.710700000000     0.163560000000     0.939990000000    -0.0121197  
C70      C      0.694360000000     0.201360000000     0.978820000000    -0.104251   
C71      C      0.716300000000     0.184870000000     0.416730000000    -0.029404   
C72      C      0.716210000000     0.246330000000     0.996930000000     0.0959173  
C73      C      0.816270000000     0.308520000000     0.977690000000     0.202919   
C74      C      0.693510000000     0.140800000000     0.398250000000    -0.0342339  
C75      C      0.641420000000     0.027920000000     0.383030000000     0.0537066  
C76      C      0.733760000000     0.210220000000     0.959620000000     0.0760554  
C77      C      0.703600000000     0.503330000000     0.959820000000    -0.134382   
C78      C      0.636720000000     0.716970000000     0.350250000000     0.0857082  
C79      C      0.532050000000     0.662440000000     0.366440000000     0.0841944  
C80      C      0.659770000000     0.695980000000     0.368610000000    -0.0963263  
C81      C      0.679820000000     0.606360000000     0.400680000000    -0.0345661  
C82      C      0.702050000000     0.583710000000     0.418790000000    -0.030019   
C83      C      0.641780000000     0.634020000000     0.405610000000    -0.00540316 
C84      C      0.553730000000     0.641270000000     0.385230000000    -0.095599   
C85      C      0.687230000000     0.588930000000     0.942180000000    -0.0135591  
C86      C      0.740760000000     0.602210000000     0.980880000000    -0.107796   
C87      C      0.649650000000     0.617090000000     0.947160000000    -0.0304642  
C88      C      0.763330000000     0.578550000000     0.998520000000     0.087144   
C89      C      0.726020000000     0.480290000000     0.977820000000     0.196138   
C90      C      0.626700000000     0.639040000000     0.928990000000    -0.0354437  
C91      C      0.618120000000     0.657620000000     0.386310000000     0.0553668  
C92      C      0.710530000000     0.564420000000     0.961300000000     0.0736518  
C93      C      0.577990000000     0.606260000000     0.230510000000    -0.130282   
C94      C      0.688660000000     0.498500000000     0.098340000000     0.0799787  
C95      C      0.792480000000     0.558780000000     0.114830000000     0.0795691  
C96      C      0.662790000000     0.517210000000     0.116610000000    -0.0960024  
C97      C      0.639120000000     0.605760000000     0.149790000000    -0.0348555  
C98      C      0.617420000000     0.627960000000     0.168350000000    -0.0301041  
C99      C      0.676510000000     0.577050000000     0.154180000000    -0.00574028 
C100     C      0.768020000000     0.577210000000     0.133570000000    -0.0960636  
C101     C      0.631590000000     0.620600000000     0.191630000000    -0.0115211  
C102     C      0.622750000000     0.708660000000     0.211400000000    -0.101942   
C103     C      0.667790000000     0.590610000000     0.196020000000    -0.0304032  
C104     C      0.604600000000     0.732050000000     0.230540000000     0.089779   
C105     C      0.559120000000     0.630390000000     0.249380000000     0.201835   
C106     C      0.690550000000     0.569600000000     0.177470000000    -0.0346299  
C107     C      0.702610000000     0.556730000000     0.134540000000     0.0529678  
C108     C      0.609930000000     0.645300000000     0.211330000000     0.0739099  
C109     C      0.555680000000     0.719960000000     0.767530000000     0.531027   
C110     C      0.551450000000     0.720160000000     0.830660000000     0.528899   
C111     C      0.394160000000     0.739060000000     0.830470000000     0.522392   
C112     C      0.558270000000     0.888490000000     0.764900000000     0.537406   
C113     C      0.571260000000     0.895090000000     0.828210000000     0.524309   
C114     C      0.390400000000     0.721740000000     0.767840000000     0.533321   
C115     C      0.776530000000     0.496530000000     0.515750000000     0.535775   
C116     C      0.778320000000     0.501790000000     0.579220000000     0.520175   
C117     C      0.946300000000     0.503360000000     0.580880000000     0.531086   
C118     C      0.795550000000     0.341040000000     0.515350000000     0.538753   
C119     C      0.780140000000     0.335770000000     0.578470000000     0.524089   
C120     C      0.952470000000     0.518050000000     0.518210000000     0.539943   
C121     C      0.095220000000     0.562100000000     0.481720000000    -0.130896   
C122     C      0.303900000000     0.657840000000     0.850910000000     0.0813098  
C123     C      0.355240000000     0.765250000000     0.864710000000     0.0792901  
C124     C      0.259430000000     0.638300000000     0.869140000000    -0.0955622  
C125     C      0.151190000000     0.624200000000     0.901330000000    -0.0345951  
C126     C      0.107860000000     0.602860000000     0.920010000000    -0.0295436  
C127     C      0.217320000000     0.662410000000     0.905430000000    -0.00557265 
C128     C      0.312170000000     0.747060000000     0.883420000000    -0.0957154  
C129     C      0.129950000000     0.618390000000     0.443170000000    -0.0119949  
C130     C      0.029780000000     0.599060000000     0.463490000000    -0.103295   
C131     C      0.196030000000     0.656960000000     0.447270000000    -0.0307378  
C132     C      0.987550000000     0.574750000000     0.482410000000     0.094625   
C133     C      0.051690000000     0.537140000000     0.500340000000     0.204041   
C134     C      0.239270000000     0.679230000000     0.428560000000    -0.0346807  
C135     C      0.263400000000     0.683020000000     0.885700000000     0.0532038  
C136     C      0.084350000000     0.592940000000     0.463050000000     0.0761521  
C137     C      0.283120000000     0.623900000000     0.719860000000    -0.133354   
C138     C      0.020070000000     0.590160000000     0.604730000000     0.0851553  
C139     C      0.997030000000     0.484150000000     0.613090000000     0.0852373  
C140     C      0.062190000000     0.613780000000     0.623710000000    -0.0958697  
C141     C      0.174570000000     0.657070000000     0.656570000000    -0.0345963  
C142     C      0.218360000000     0.678920000000     0.675090000000    -0.0305435  
C143     C      0.118840000000     0.596130000000     0.657530000000    -0.00508606 
C144     C      0.039740000000     0.506270000000     0.631870000000    -0.0950005  
C145     C      0.207980000000     0.639840000000     0.694710000000    -0.0134753  
C146     C      0.274340000000     0.718100000000     0.725720000000    -0.108056   
C147     C      0.152450000000     0.579360000000     0.695870000000    -0.0304932  
C148     C      0.318670000000     0.736390000000     0.743920000000     0.0887944  
C149     C      0.328570000000     0.643800000000     0.737820000000     0.194615   
C150     C      0.107990000000     0.558000000000     0.677620000000    -0.0343829  
C151     C      0.072930000000     0.571830000000     0.637530000000     0.0546997  
C152     C      0.255910000000     0.661110000000     0.713660000000     0.0738157  
C153     C      0.665190000000     0.998290000000     0.719230000000    -0.133802   
C154     C      0.706930000000     0.280410000000     0.609400000000     0.0809779  
C155     C      0.790000000000     0.257750000000     0.600930000000     0.0822065  
C156     C      0.684260000000     0.234880000000     0.627320000000    -0.0971175  
C157     C      0.629000000000     0.103180000000     0.651980000000    -0.0358972  
C158     C      0.607090000000     0.058400000000     0.670190000000    -0.0304926  
C159     C      0.692860000000     0.153240000000     0.651510000000    -0.00603663 
C160     C      0.769440000000     0.212870000000     0.619100000000    -0.0971241  
C161     C      0.648290000000     0.063540000000     0.688600000000    -0.0127898  
C162     C      0.561640000000     0.989240000000     0.716350000000    -0.106451   
C163     C      0.712270000000     0.114260000000     0.688070000000    -0.0302227  
C164     C      0.540600000000     0.945540000000     0.734850000000     0.087864   
C165     C      0.643370000000     0.955240000000     0.738060000000     0.197047   
C166     C      0.734440000000     0.158200000000     0.669580000000    -0.0351632  
C167     C      0.715790000000     0.200850000000     0.632350000000     0.0539878  
C168     C      0.624740000000     0.016530000000     0.708310000000     0.0726424  
C169     C      0.794900000000     0.264440000000     0.459120000000    -0.130415   
C170     C      0.634530000000     0.936240000000     0.862720000000     0.081243   
C171     C      0.578170000000     0.985890000000     0.847750000000     0.0821495  
C172     C      0.657750000000     0.979790000000     0.881340000000    -0.0955193  
C173     C      0.660730000000     0.053410000000     0.425880000000    -0.0352445  
C174     C      0.682520000000     0.097400000000     0.444390000000    -0.0306791  
C175     C      0.665680000000     0.074660000000     0.902640000000    -0.00555831 
C176     C      0.601450000000     0.030880000000     0.865910000000    -0.0963389  
C177     C      0.710700000000     0.163560000000     0.439990000000    -0.012117   
C178     C      0.694360000000     0.201360000000     0.478820000000    -0.104232   
C179     C      0.716300000000     0.184870000000     0.916730000000    -0.0294024  
C180     C      0.716210000000     0.246330000000     0.496930000000     0.0958637  
C181     C      0.816270000000     0.308520000000     0.477690000000     0.202913   
C182     C      0.693510000000     0.140800000000     0.898250000000    -0.0342346  
C183     C      0.641420000000     0.027920000000     0.883030000000     0.0537067  
C184     C      0.733760000000     0.210220000000     0.459620000000     0.0760458  
C185     C      0.703600000000     0.503330000000     0.459820000000    -0.134369   
C186     C      0.636720000000     0.716970000000     0.850250000000     0.0857082  
C187     C      0.532050000000     0.662440000000     0.866440000000     0.0841946  
C188     C      0.659770000000     0.695980000000     0.868610000000    -0.0963262  
C189     C      0.679820000000     0.606360000000     0.900680000000    -0.0345671  
C190     C      0.702050000000     0.583710000000     0.918790000000    -0.0300165  
C191     C      0.641780000000     0.634020000000     0.905610000000    -0.00540202 
C192     C      0.553730000000     0.641270000000     0.885230000000    -0.0955988  
C193     C      0.687230000000     0.588930000000     0.442180000000    -0.0135551  
C194     C      0.740760000000     0.602210000000     0.480880000000    -0.107776   
C195     C      0.649650000000     0.617090000000     0.447160000000    -0.0304675  
C196     C      0.763330000000     0.578550000000     0.498520000000     0.0870907  
C197     C      0.726020000000     0.480290000000     0.477820000000     0.196123   
C198     C      0.626700000000     0.639040000000     0.428990000000    -0.0354438  
C199     C      0.618120000000     0.657620000000     0.886310000000     0.0553669  
C200     C      0.710530000000     0.564420000000     0.461300000000     0.0736384  
C201     C      0.577990000000     0.606260000000     0.730510000000    -0.130302   
C202     C      0.688660000000     0.498500000000     0.598340000000     0.0799796  
C203     C      0.792480000000     0.558780000000     0.614830000000     0.0795695  
C204     C      0.662790000000     0.517210000000     0.616610000000    -0.096001   
C205     C      0.639120000000     0.605760000000     0.649790000000    -0.0348596  
C206     C      0.617420000000     0.627960000000     0.668350000000    -0.0300946  
C207     C      0.676510000000     0.577050000000     0.654180000000    -0.00573654 
C208     C      0.768020000000     0.577210000000     0.633570000000    -0.0960627  
C209     C      0.631590000000     0.620600000000     0.691630000000    -0.0115395  
C210     C      0.622750000000     0.708660000000     0.711400000000    -0.102041   
C211     C      0.667790000000     0.590610000000     0.696020000000    -0.0303948  
C212     C      0.604600000000     0.732050000000     0.730540000000     0.0898168  
C213     C      0.559120000000     0.630390000000     0.749380000000     0.201844   
C214     C      0.690550000000     0.569600000000     0.677470000000    -0.0346344  
C215     C      0.702610000000     0.556730000000     0.634540000000     0.0529669  
C216     C      0.609930000000     0.645300000000     0.711330000000     0.0739548  
Fe1      Fe     0.460110000000     0.701530000000     0.299770000000     1.37182    
Fe2      Fe     0.467750000000     0.825170000000     0.297770000000     1.35326    
Fe3      Fe     0.583030000000     0.816750000000     0.297370000000     1.36878    
Fe4      Fe     0.873660000000     0.528930000000     0.048840000000     1.3561     
Fe5      Fe     0.881730000000     0.413270000000     0.048220000000     1.36707    
Fe6      Fe     0.758400000000     0.405440000000     0.046980000000     1.3567     
Fe7      Fe     0.460110000000     0.701530000000     0.799770000000     1.37182    
Fe8      Fe     0.467750000000     0.825170000000     0.797770000000     1.35326    
Fe9      Fe     0.583030000000     0.816750000000     0.797370000000     1.36878    
Fe10     Fe     0.873660000000     0.528930000000     0.548840000000     1.3561     
Fe11     Fe     0.881730000000     0.413270000000     0.548220000000     1.36711    
Fe12     Fe     0.758400000000     0.405440000000     0.546980000000     1.35671    
H1       H      0.392200000000     0.815330000000     0.363490000000     0.0261297  
H2       H      0.945630000000     0.580380000000     0.981840000000     0.0312908  
H3       H      0.290020000000     0.708310000000     0.932210000000     0.0406815  
H4       H      0.057190000000     0.572920000000     0.416390000000     0.0445846  
H5       H      0.019990000000     0.623040000000     0.949370000000     0.0608501  
H6       H      0.133030000000     0.610860000000     0.383640000000     0.0418868  
H7       H      0.137470000000     0.557080000000     0.981760000000     0.0851418  
H8       H      0.316600000000     0.783040000000     0.395890000000     0.0554531  
H9       H      0.222750000000     0.588200000000     0.370470000000     0.0584334  
H10      H      0.214220000000     0.669900000000     0.964970000000     0.0416669  
H11      H      0.299310000000     0.621490000000     0.338570000000     0.0285973  
H12      H      0.972500000000     0.433080000000     0.109380000000     0.0273784  
H13      H      0.331410000000     0.781100000000     0.252800000000     0.0218003  
H14      H      0.065050000000     0.511590000000     0.179350000000     0.0402065  
H15      H      0.261260000000     0.725600000000     0.173810000000     0.0398235  
H16      H      0.253920000000     0.747960000000     0.221320000000     0.0587365  
H17      H      0.185350000000     0.687450000000     0.141300000000     0.040324   
H18      H      0.269180000000     0.579410000000     0.210620000000     0.0845811  
H19      H      0.047240000000     0.471960000000     0.141610000000     0.0569413  
H20      H      0.085550000000     0.664620000000     0.127590000000     0.0549292  
H21      H      0.143320000000     0.548740000000     0.211000000000     0.0427759  
H22      H      0.013210000000     0.624290000000     0.094530000000     0.0232941  
H23      H      0.831550000000     0.265590000000     0.090930000000     0.0252014  
H24      H      0.491430000000     0.926460000000     0.240530000000     0.0213054  
H25      H      0.783760000000     0.196940000000     0.169660000000     0.0415251  
H26      H      0.557970000000     0.019410000000     0.169650000000     0.0378916  
H27      H      0.528570000000     0.002280000000     0.208760000000     0.0571671  
H28      H      0.596270000000     0.098230000000     0.138060000000     0.0402158  
H29      H      0.713530000000     0.016320000000     0.212860000000     0.0822379  
H30      H      0.794820000000     0.187160000000     0.122570000000     0.0571209  
H31      H      0.642840000000     0.226970000000     0.137390000000     0.056356   
H32      H      0.745190000000     0.120830000000     0.202100000000     0.0416222  
H33      H      0.681420000000     0.306140000000     0.106150000000     0.0253357  
H34      H      0.546880000000     0.989550000000     0.334960000000     0.0240448  
H35      H      0.683630000000     0.237100000000     0.011420000000     0.0256317  
H36      H      0.698200000000     0.158460000000     0.380480000000     0.0425477  
H37      H      0.677910000000     0.079770000000     0.962160000000     0.0392029  
H38      H      0.646380000000     0.160250000000     0.979700000000     0.0604417  
H39      H      0.639100000000     0.002650000000     0.929750000000     0.0399748  
H40      H      0.826090000000     0.272540000000     0.944280000000     0.0843106  
H41      H      0.587390000000     0.067160000000     0.366740000000     0.0567447  
H42      H      0.688880000000     0.976230000000     0.394200000000     0.0565357  
H43      H      0.737470000000     0.235590000000     0.412880000000     0.0459952  
H44      H      0.648410000000     0.899760000000     0.362030000000     0.0278094  
H45      H      0.481740000000     0.648420000000     0.366090000000     0.028954   
H46      H      0.786220000000     0.609670000000     0.013430000000     0.0225442  
H47      H      0.597780000000     0.660580000000     0.933220000000     0.0401491  
H48      H      0.731330000000     0.562580000000     0.414530000000     0.0427027  
H49      H      0.747650000000     0.650170000000     0.982460000000     0.0583214  
H50      H      0.691730000000     0.601560000000     0.382780000000     0.0432883  
H51      H      0.680760000000     0.473470000000     0.944630000000     0.0835566  
H52      H      0.520070000000     0.611330000000     0.398580000000     0.0578363  
H53      H      0.710070000000     0.710120000000     0.369010000000     0.0574914  
H54      H      0.637310000000     0.621290000000     0.965060000000     0.0391728  
H55      H      0.670640000000     0.746710000000     0.336910000000     0.0276432  
H56      H      0.843540000000     0.576050000000     0.114730000000     0.0265592  
H57      H      0.615770000000     0.781660000000     0.229670000000     0.0404435  
H58      H      0.719090000000     0.547400000000     0.181310000000     0.0414453  
H59      H      0.589370000000     0.650700000000     0.164530000000     0.0421491  
H60      H      0.647830000000     0.740490000000     0.196890000000     0.0622774  
H61      H      0.627970000000     0.612370000000     0.131990000000     0.0410339  
H62      H      0.567790000000     0.556950000000     0.230830000000     0.0854094  
H63      H      0.800350000000     0.608140000000     0.147060000000     0.0560053  
H64      H      0.611840000000     0.500210000000     0.116870000000     0.0566559  
H65      H      0.679680000000     0.584710000000     0.213800000000     0.0430151  
H66      H      0.656270000000     0.467530000000     0.084850000000     0.0241942  
H67      H      0.392200000000     0.815330000000     0.863490000000     0.02613    
H68      H      0.945630000000     0.580380000000     0.481840000000     0.0312875  
H69      H      0.290020000000     0.708310000000     0.432210000000     0.0406803  
H70      H      0.057190000000     0.572920000000     0.916390000000     0.0445858  
H71      H      0.019990000000     0.623040000000     0.449380000000     0.0608995  
H72      H      0.133030000000     0.610860000000     0.883640000000     0.0418853  
H73      H      0.137470000000     0.557080000000     0.481760000000     0.0851467  
H74      H      0.316600000000     0.783040000000     0.895890000000     0.0554546  
H75      H      0.222750000000     0.588200000000     0.870470000000     0.0584339  
H76      H      0.214220000000     0.669900000000     0.464970000000     0.0416586  
H77      H      0.299310000000     0.621490000000     0.838570000000     0.0285971  
H78      H      0.972500000000     0.433080000000     0.609380000000     0.0273793  
H79      H      0.331410000000     0.781100000000     0.752800000000     0.0218001  
H80      H      0.065050000000     0.511590000000     0.679350000000     0.0402063  
H81      H      0.261260000000     0.725600000000     0.673810000000     0.0398242  
H82      H      0.253920000000     0.747960000000     0.721320000000     0.0587364  
H83      H      0.185350000000     0.687450000000     0.641300000000     0.0403254  
H84      H      0.269180000000     0.579410000000     0.710620000000     0.0845814  
H85      H      0.047240000000     0.471960000000     0.641610000000     0.0569419  
H86      H      0.085550000000     0.664620000000     0.627590000000     0.05493    
H87      H      0.143320000000     0.548740000000     0.711000000000     0.0427756  
H88      H      0.013210000000     0.624290000000     0.594530000000     0.0232947  
H89      H      0.831550000000     0.265590000000     0.590930000000     0.0252005  
H90      H      0.491430000000     0.926460000000     0.740530000000     0.0213053  
H91      H      0.783760000000     0.196940000000     0.669660000000     0.0415262  
H92      H      0.557970000000     0.019410000000     0.669650000000     0.0378926  
H93      H      0.528570000000     0.002280000000     0.708760000000     0.0571672  
H94      H      0.596270000000     0.098230000000     0.638060000000     0.0402169  
H95      H      0.713530000000     0.016320000000     0.712860000000     0.082238   
H96      H      0.794820000000     0.187160000000     0.622560000000     0.0571339  
H97      H      0.642840000000     0.226970000000     0.637390000000     0.0563579  
H98      H      0.745190000000     0.120830000000     0.702100000000     0.0416224  
H99      H      0.681420000000     0.306140000000     0.606150000000     0.0253359  
H100     H      0.546880000000     0.989550000000     0.834960000000     0.0240446  
H101     H      0.683630000000     0.237100000000     0.511420000000     0.0256686  
H102     H      0.698200000000     0.158460000000     0.880480000000     0.0425474  
H103     H      0.677910000000     0.079770000000     0.462160000000     0.0391989  
H104     H      0.646380000000     0.160250000000     0.479700000000     0.0604298  
H105     H      0.639100000000     0.002650000000     0.429750000000     0.0399724  
H106     H      0.826090000000     0.272540000000     0.444280000000     0.0843089  
H107     H      0.587390000000     0.067160000000     0.866740000000     0.0567447  
H108     H      0.688880000000     0.976230000000     0.894200000000     0.0565368  
H109     H      0.737470000000     0.235590000000     0.912880000000     0.0459934  
H110     H      0.648410000000     0.899760000000     0.862030000000     0.0278097  
H111     H      0.481740000000     0.648420000000     0.866090000000     0.0289545  
H112     H      0.786220000000     0.609670000000     0.513430000000     0.0225816  
H113     H      0.597780000000     0.660580000000     0.433220000000     0.0401464  
H114     H      0.731330000000     0.562580000000     0.914530000000     0.0427009  
H115     H      0.747650000000     0.650170000000     0.482460000000     0.0583089  
H116     H      0.691730000000     0.601560000000     0.882780000000     0.0432882  
H117     H      0.680760000000     0.473470000000     0.444630000000     0.0835578  
H118     H      0.520070000000     0.611330000000     0.898580000000     0.0578375  
H119     H      0.710070000000     0.710120000000     0.869010000000     0.0574916  
H120     H      0.637310000000     0.621290000000     0.465060000000     0.0391688  
H121     H      0.670640000000     0.746710000000     0.836910000000     0.027643   
H122     H      0.843540000000     0.576050000000     0.614730000000     0.0265596  
H123     H      0.615770000000     0.781660000000     0.729670000000     0.0404317  
H124     H      0.719090000000     0.547400000000     0.681310000000     0.0414461  
H125     H      0.589370000000     0.650700000000     0.664530000000     0.0421489  
H126     H      0.647830000000     0.740490000000     0.696900000000     0.0623321  
H127     H      0.627970000000     0.612370000000     0.631990000000     0.0410372  
H128     H      0.567790000000     0.556950000000     0.730830000000     0.0854142  
H129     H      0.800350000000     0.608140000000     0.647060000000     0.0560054  
H130     H      0.611840000000     0.500210000000     0.616870000000     0.0566576  
H131     H      0.679680000000     0.584710000000     0.713800000000     0.043012   
H132     H      0.656270000000     0.467530000000     0.584850000000     0.0241972  
N1       N      0.997440000000     0.543130000000     0.000610000000    -0.224656   
N2       N      0.351260000000     0.720880000000     0.348630000000    -0.214783   
N3       N      0.346190000000     0.700170000000     0.249980000000    -0.227757   
N4       N      0.987680000000     0.525840000000     0.099500000000    -0.215229   
N5       N      0.581130000000     0.929480000000     0.246060000000    -0.229534   
N6       N      0.759090000000     0.291400000000     0.096180000000    -0.215709   
N7       N      0.776850000000     0.299200000000     0.996710000000    -0.224114   
N8       N      0.594760000000     0.939050000000     0.346110000000    -0.214566   
N9       N      0.755280000000     0.517770000000     0.997360000000    -0.229208   
N10      N      0.573240000000     0.699840000000     0.349060000000    -0.214831   
N11      N      0.572760000000     0.693650000000     0.249430000000    -0.223421   
N12      N      0.753130000000     0.519580000000     0.097370000000    -0.214531   
N13      N      0.997440000000     0.543130000000     0.500610000000    -0.224568   
N14      N      0.351260000000     0.720880000000     0.848630000000    -0.214784   
N15      N      0.346190000000     0.700170000000     0.749980000000    -0.227757   
N16      N      0.987680000000     0.525840000000     0.599500000000    -0.21523    
N17      N      0.581130000000     0.929480000000     0.746060000000    -0.229534   
N18      N      0.759090000000     0.291400000000     0.596180000000    -0.215711   
N19      N      0.776850000000     0.299200000000     0.496710000000    -0.224126   
N20      N      0.594760000000     0.939050000000     0.846110000000    -0.214566   
N21      N      0.755280000000     0.517770000000     0.497360000000    -0.22922    
N22      N      0.573240000000     0.699840000000     0.849060000000    -0.214831   
N23      N      0.572760000000     0.693650000000     0.749430000000    -0.223429   
N24      N      0.753130000000     0.519580000000     0.597370000000    -0.21453    
O1       O      0.589650000000     0.756130000000     0.314970000000    -0.493248   
O2       O      0.499080000000     0.856110000000     0.268880000000    -0.503316   
O3       O      0.492730000000     0.700960000000     0.328300000000    -0.498742   
O4       O      0.516400000000     0.685310000000     0.283170000000    -0.464609   
O5       O      0.590580000000     0.855650000000     0.325360000000    -0.498645   
O6       O      0.396080000000     0.765950000000     0.281510000000    -0.493801   
O7       O      0.503570000000     0.781270000000     0.298310000000    -0.883309   
O8       O      0.433720000000     0.797340000000     0.326710000000    -0.499698   
O9       O      0.392800000000     0.697710000000     0.316420000000    -0.492698   
O10      O      0.580250000000     0.779900000000     0.269320000000    -0.489061   
O11      O      0.424920000000     0.697260000000     0.271460000000    -0.481631   
O12      O      0.531280000000     0.894720000000     0.313710000000    -0.493042   
O13      O      0.595950000000     0.886110000000     0.279680000000    -0.480493   
O14      O      0.742530000000     0.461900000000     0.063840000000    -0.489511   
O15      O      0.853580000000     0.380190000000     0.019240000000    -0.477516   
O16      O      0.837950000000     0.526890000000     0.076940000000    -0.501489   
O17      O      0.812580000000     0.535160000000     0.031360000000    -0.497428   
O18      O      0.754940000000     0.370000000000     0.075210000000    -0.503424   
O19      O      0.951180000000     0.477270000000     0.032480000000    -0.469843   
O20      O      0.838020000000     0.449230000000     0.048110000000    -0.879044   
O21      O      0.912950000000     0.444050000000     0.077060000000    -0.500761   
O22      O      0.943050000000     0.541860000000     0.066560000000    -0.494187   
O23      O      0.756890000000     0.437870000000     0.018570000000    -0.483565   
O24      O      0.911940000000     0.536020000000     0.020750000000    -0.498805   
O25      O      0.823040000000     0.340960000000     0.064320000000    -0.491959   
O26      O      0.754760000000     0.338280000000     0.030010000000    -0.490039   
O27      O      0.589650000000     0.756130000000     0.814970000000    -0.493248   
O28      O      0.499080000000     0.856110000000     0.768880000000    -0.503316   
O29      O      0.492730000000     0.700960000000     0.828300000000    -0.498742   
O30      O      0.516400000000     0.685310000000     0.783170000000    -0.464609   
O31      O      0.590580000000     0.855650000000     0.825360000000    -0.498645   
O32      O      0.396080000000     0.765950000000     0.781510000000    -0.493802   
O33      O      0.503570000000     0.781270000000     0.798310000000    -0.883308   
O34      O      0.433720000000     0.797340000000     0.826710000000    -0.499698   
O35      O      0.392800000000     0.697710000000     0.816420000000    -0.492698   
O36      O      0.580250000000     0.779900000000     0.769320000000    -0.489062   
O37      O      0.424920000000     0.697260000000     0.771460000000    -0.481631   
O38      O      0.531280000000     0.894720000000     0.813710000000    -0.493042   
O39      O      0.595950000000     0.886110000000     0.779680000000    -0.480493   
O40      O      0.742530000000     0.461900000000     0.563840000000    -0.48951    
O41      O      0.853580000000     0.380190000000     0.519240000000    -0.477507   
O42      O      0.837950000000     0.526890000000     0.576940000000    -0.501488   
O43      O      0.812580000000     0.535160000000     0.531360000000    -0.497426   
O44      O      0.754940000000     0.370000000000     0.575210000000    -0.503426   
O45      O      0.951180000000     0.477270000000     0.532480000000    -0.470018   
O46      O      0.838020000000     0.449230000000     0.548110000000    -0.879053   
O47      O      0.912950000000     0.444050000000     0.577060000000    -0.500766   
O48      O      0.943050000000     0.541860000000     0.566560000000    -0.4942     
O49      O      0.756890000000     0.437870000000     0.518570000000    -0.483568   
O50      O      0.911940000000     0.536020000000     0.520750000000    -0.498861   
O51      O      0.823040000000     0.340960000000     0.564320000000    -0.491963   
O52      O      0.754760000000     0.338280000000     0.530010000000    -0.490042   


