data_structure

_audit_creation_method RASPA-1.0
_audit_creation_date 2023-6-4
_audit_author_name 'Poobodin Mano'

_cell_length_a    23.4154
_cell_length_b    23.6388
_cell_length_c    58.2681
_cell_angle_alpha 90
_cell_angle_beta  90
_cell_angle_gamma 120
_cell_volume      27931.1

_symmetry_cell_setting          triclinic
_symmetry_space_group_name_Hall 'P 1'
_symmetry_space_group_name_H-M  'P 1'
_symmetry_Int_Tables_number     1

_symmetry_equiv_pos_as_xyz 'x,y,z'

loop_
_atom_site_label
_atom_site_type_symbol
_atom_site_fract_x
_atom_site_fract_y
_atom_site_fract_z
_atom_site_charge
C1       C      0.415780000000     0.724630000000     0.256660000000     0.523119   
C2       C      0.412280000000     0.733930000000     0.319150000000     0.526471   
C3       C      0.579160000000     0.906250000000     0.318980000000     0.525725   
C4       C      0.597270000000     0.746060000000     0.258930000000     0.522193   
C5       C      0.585660000000     0.741270000000     0.320790000000     0.523648   
C6       C      0.572310000000     0.903720000000     0.256770000000     0.524926   
C7       C      0.810800000000     0.520410000000     0.070970000000     0.52461    
C8       C      0.798530000000     0.514060000000     0.009180000000     0.524904   
C9       C      0.799870000000     0.345350000000     0.006860000000     0.523791   
C10      C      0.972570000000     0.501500000000     0.069040000000     0.523693   
C11      C      0.971270000000     0.516020000000     0.007440000000     0.527226   
C12      C      0.792550000000     0.340570000000     0.068570000000     0.5215     
C13      C      0.299670000000     0.624770000000     0.364410000000    -0.108441   
C14      C      0.022750000000     0.588650000000     0.976160000000     0.080106   
C15      C      0.048670000000     0.505630000000     0.983970000000     0.0811802  
C16      C      0.066300000000     0.610580000000     0.957630000000    -0.0968854  
C17      C      0.134030000000     0.626960000000     0.412190000000    -0.0352992  
C18      C      0.177750000000     0.648750000000     0.393660000000    -0.034562   
C19      C      0.147420000000     0.601140000000     0.931930000000    -0.0075427  
C20      C      0.091710000000     0.525490000000     0.965270000000    -0.0972743  
C21      C      0.235060000000     0.644020000000     0.394280000000    -0.0101512  
C22      C      0.306830000000     0.729610000000     0.366150000000    -0.10016    
C23      C      0.248430000000     0.617780000000     0.913770000000    -0.0345821  
C24      C      0.351150000000     0.750460000000     0.347890000000     0.0803023  
C25      C      0.343560000000     0.646230000000     0.345780000000     0.111585   
C26      C      0.205410000000     0.597110000000     0.932490000000    -0.0353531  
C27      C      0.101290000000     0.578790000000     0.951830000000     0.0523336  
C28      C      0.280910000000     0.666380000000     0.374590000000     0.058503   
C29      C      0.300000000000     0.708700000000     0.210290000000    -0.108632   
C30      C      0.023320000000     0.475320000000     0.099500000000     0.0788721  
C31      C      0.056420000000     0.585880000000     0.091690000000     0.0803831  
C32      C      0.069160000000     0.494330000000     0.117360000000    -0.0960503  
C33      C      0.144540000000     0.543500000000     0.161930000000    -0.0353918  
C34      C      0.188940000000     0.565080000000     0.180320000000    -0.0347289  
C35      C      0.157630000000     0.582190000000     0.142070000000    -0.00748538 
C36      C      0.101760000000     0.606500000000     0.109700000000    -0.0969546  
C37      C      0.246640000000     0.626210000000     0.179410000000    -0.0104118  
C38      C      0.323440000000     0.620950000000     0.208000000000    -0.0998781  
C39      C      0.260510000000     0.664560000000     0.159610000000    -0.0349275  
C40      C      0.365700000000     0.647350000000     0.226800000000     0.0788195  
C41      C      0.341590000000     0.733860000000     0.229440000000     0.110506   
C42      C      0.216960000000     0.642510000000     0.141040000000    -0.0355931  
C43      C      0.109150000000     0.560700000000     0.122780000000     0.0514643  
C44      C      0.290510000000     0.651960000000     0.199570000000     0.0577657  
C45      C      0.753140000000     0.197000000000     0.105270000000    -0.10756    
C46      C      0.657220000000     0.994640000000     0.236710000000     0.0799963  
C47      C      0.548020000000     0.940880000000     0.222130000000     0.078737   
C48      C      0.678530000000     0.038530000000     0.218370000000    -0.0976923  
C49      C      0.695230000000     0.146030000000     0.185000000000    -0.0358726  
C50      C      0.716520000000     0.188740000000     0.166280000000    -0.0346049  
C51      C      0.655790000000     0.078340000000     0.181600000000    -0.00792798 
C52      C      0.567870000000     0.983340000000     0.203390000000    -0.0969306  
C53      C      0.699590000000     0.164430000000     0.143810000000    -0.0101316  
C54      C      0.716960000000     0.264780000000     0.123390000000    -0.0990073  
C55      C      0.660170000000     0.096750000000     0.140420000000    -0.0347628  
C56      C      0.739410000000     0.306360000000     0.104460000000     0.0771069  
C57      C      0.776160000000     0.239780000000     0.086430000000     0.108605   
C58      C      0.638090000000     0.054140000000     0.159150000000    -0.035884   
C59      C      0.633710000000     0.032960000000     0.201410000000     0.0522073  
C60      C      0.723660000000     0.209470000000     0.123920000000     0.0567863  
C61      C      0.576800000000     0.016360000000     0.364000000000    -0.106583   
C62      C      0.818120000000     0.294250000000     0.974780000000     0.0799718  
C63      C      0.709060000000     0.267440000000     0.984570000000     0.0806482  
C64      C      0.794630000000     0.250010000000     0.956590000000    -0.0978698  
C65      C      0.717600000000     0.117660000000     0.931420000000    -0.0359844  
C66      C      0.695650000000     0.074320000000     0.412920000000    -0.034083   
C67      C      0.701880000000     0.167530000000     0.932830000000    -0.00800194 
C68      C      0.683990000000     0.223810000000     0.966130000000    -0.0980119  
C69      C      0.658650000000     0.080760000000     0.395080000000    -0.00951628 
C70      C      0.675960000000     0.010580000000     0.366710000000    -0.098595   
C71      C      0.642980000000     0.130970000000     0.396640000000    -0.0341905  
C72      C      0.654580000000     0.967280000000     0.348270000000     0.0794606  
C73      C      0.556540000000     0.973500000000     0.345150000000     0.110443   
C74      C      0.663810000000     0.173460000000     0.915440000000    -0.0358862  
C75      C      0.727010000000     0.214420000000     0.952090000000     0.0528704  
C76      C      0.636970000000     0.035550000000     0.374970000000     0.0567529  
C77      C      0.695890000000     0.740850000000     0.366550000000    -0.107893   
C78      C      0.726500000000     0.496500000000     0.977830000000     0.0794982  
C79      C      0.810950000000     0.603970000000     0.986790000000     0.0802757  
C80      C      0.705920000000     0.519730000000     0.959450000000    -0.0964729  
C81      C      0.692600000000     0.573250000000     0.414260000000    -0.0354138  
C82      C      0.671370000000     0.595650000000     0.395770000000    -0.0347723  
C83      C      0.718690000000     0.611650000000     0.934160000000    -0.00754329 
C84      C      0.792460000000     0.628780000000     0.968210000000    -0.0966816  
C85      C      0.677010000000     0.657530000000     0.396490000000    -0.0100626  
C86      C      0.590080000000     0.643220000000     0.368570000000    -0.0997876  
C87      C      0.704130000000     0.696670000000     0.916040000000    -0.034806   
C88      C      0.568860000000     0.665740000000     0.350180000000     0.0797014  
C89      C      0.674040000000     0.762300000000     0.347760000000     0.110842   
C90      C      0.724210000000     0.673790000000     0.934750000000    -0.0354242  
C91      C      0.739300000000     0.586570000000     0.954180000000     0.0516266  
C92      C      0.654070000000     0.680840000000     0.376900000000     0.0577751  
C93      C      0.641770000000     0.644970000000     0.222630000000    -0.107454   
C94      C      0.726290000000     0.526820000000     0.091570000000     0.079302   
C95      C      0.836840000000     0.585020000000     0.104800000000     0.0784297  
C96      C      0.705990000000     0.551130000000     0.109770000000    -0.0976117  
C97      C      0.690090000000     0.644410000000     0.142460000000    -0.0358047  
C98      C      0.670500000000     0.667720000000     0.161180000000    -0.0346187  
C99      C      0.731450000000     0.617840000000     0.145690000000    -0.00803652 
C100     C      0.818090000000     0.609440000000     0.123340000000    -0.0973327  
C101     C      0.691100000000     0.663930000000     0.183480000000    -0.00994805 
C102     C      0.671770000000     0.746300000000     0.203730000000    -0.0987658  
C103     C      0.732610000000     0.637580000000     0.186690000000    -0.0347569  
C104     C      0.649590000000     0.765480000000     0.222820000000     0.0775923  
C105     C      0.619120000000     0.664750000000     0.241590000000     0.108989   
C106     C      0.752900000000     0.615120000000     0.167970000000    -0.0357185  
C107     C      0.752100000000     0.592730000000     0.125950000000     0.0520685  
C108     C      0.667790000000     0.685460000000     0.203500000000     0.056972   
C109     C      0.415780000000     0.724630000000     0.756660000000     0.523171   
C110     C      0.412280000000     0.733930000000     0.819140000000     0.526661   
C111     C      0.579160000000     0.906250000000     0.818980000000     0.525732   
C112     C      0.597270000000     0.746060000000     0.758930000000     0.522459   
C113     C      0.585660000000     0.741270000000     0.820790000000     0.523658   
C114     C      0.572310000000     0.903720000000     0.756770000000     0.524925   
C115     C      0.810800000000     0.520410000000     0.570970000000     0.52461    
C116     C      0.798530000000     0.514060000000     0.509180000000     0.524928   
C117     C      0.799870000000     0.345350000000     0.506860000000     0.523817   
C118     C      0.972570000000     0.501500000000     0.569050000000     0.523528   
C119     C      0.971270000000     0.516020000000     0.507440000000     0.52709    
C120     C      0.792550000000     0.340570000000     0.568570000000     0.521502   
C121     C      0.299670000000     0.624770000000     0.864410000000    -0.108435   
C122     C      0.022750000000     0.588650000000     0.476160000000     0.0801528  
C123     C      0.048670000000     0.505630000000     0.483970000000     0.0811844  
C124     C      0.066300000000     0.610580000000     0.457630000000    -0.0969425  
C125     C      0.134030000000     0.626960000000     0.912190000000    -0.0353043  
C126     C      0.177750000000     0.648750000000     0.893660000000    -0.0345597  
C127     C      0.147420000000     0.601140000000     0.431930000000    -0.00755299 
C128     C      0.091710000000     0.525490000000     0.465270000000    -0.097338   
C129     C      0.235060000000     0.644020000000     0.894280000000    -0.0101509  
C130     C      0.306830000000     0.729610000000     0.866150000000    -0.100155   
C131     C      0.248430000000     0.617780000000     0.413770000000    -0.0345847  
C132     C      0.351150000000     0.750460000000     0.847890000000     0.0802898  
C133     C      0.343560000000     0.646230000000     0.845780000000     0.111569   
C134     C      0.205410000000     0.597110000000     0.432490000000    -0.0353496  
C135     C      0.101290000000     0.578790000000     0.451840000000     0.052402   
C136     C      0.280910000000     0.666380000000     0.874590000000     0.0584988  
C137     C      0.300000000000     0.708700000000     0.710290000000    -0.108634   
C138     C      0.023320000000     0.475320000000     0.599500000000     0.0788857  
C139     C      0.056420000000     0.585880000000     0.591690000000     0.0804049  
C140     C      0.069160000000     0.494330000000     0.617360000000    -0.0960559  
C141     C      0.144540000000     0.543500000000     0.661930000000    -0.0353908  
C142     C      0.188940000000     0.565080000000     0.680320000000    -0.0347295  
C143     C      0.157630000000     0.582190000000     0.642070000000    -0.00748768 
C144     C      0.101760000000     0.606500000000     0.609700000000    -0.0969634  
C145     C      0.246640000000     0.626210000000     0.679410000000    -0.0104116  
C146     C      0.323440000000     0.620950000000     0.708000000000    -0.0998778  
C147     C      0.260510000000     0.664560000000     0.659610000000    -0.0349279  
C148     C      0.365700000000     0.647350000000     0.726800000000     0.078816   
C149     C      0.341590000000     0.733860000000     0.729440000000     0.110508   
C150     C      0.216960000000     0.642510000000     0.641040000000    -0.0355917  
C151     C      0.109150000000     0.560700000000     0.622780000000     0.0514709  
C152     C      0.290510000000     0.651960000000     0.699570000000     0.0577655  
C153     C      0.753140000000     0.197000000000     0.605270000000    -0.107635   
C154     C      0.657220000000     0.994640000000     0.736710000000     0.0799999  
C155     C      0.548020000000     0.940880000000     0.722130000000     0.0787163  
C156     C      0.678530000000     0.038530000000     0.718370000000    -0.0977063  
C157     C      0.695230000000     0.146030000000     0.685000000000    -0.0358722  
C158     C      0.716520000000     0.188740000000     0.666280000000    -0.0346018  
C159     C      0.655790000000     0.078340000000     0.681600000000    -0.00793336 
C160     C      0.567870000000     0.983340000000     0.703380000000    -0.0969733  
C161     C      0.699590000000     0.164430000000     0.643810000000    -0.0101411  
C162     C      0.716960000000     0.264780000000     0.623390000000    -0.0990223  
C163     C      0.660170000000     0.096750000000     0.640420000000    -0.0347593  
C164     C      0.739410000000     0.306360000000     0.604460000000     0.0771086  
C165     C      0.776160000000     0.239780000000     0.586440000000     0.108648   
C166     C      0.638090000000     0.054140000000     0.659150000000    -0.0358822  
C167     C      0.633710000000     0.032960000000     0.701410000000     0.0522333  
C168     C      0.723660000000     0.209470000000     0.623920000000     0.0568139  
C169     C      0.576800000000     0.016360000000     0.864000000000    -0.106583   
C170     C      0.818120000000     0.294250000000     0.474780000000     0.0799689  
C171     C      0.709060000000     0.267440000000     0.484570000000     0.0806385  
C172     C      0.794630000000     0.250010000000     0.456590000000    -0.0978706  
C173     C      0.717600000000     0.117660000000     0.431420000000    -0.035983   
C174     C      0.695650000000     0.074320000000     0.912920000000    -0.0340831  
C175     C      0.701880000000     0.167530000000     0.432830000000    -0.00800321 
C176     C      0.683990000000     0.223810000000     0.466130000000    -0.0980112  
C177     C      0.658650000000     0.080760000000     0.895080000000    -0.00951344 
C178     C      0.675960000000     0.010580000000     0.866710000000    -0.0985942  
C179     C      0.642980000000     0.130970000000     0.896640000000    -0.034191   
C180     C      0.654580000000     0.967280000000     0.848270000000     0.0794621  
C181     C      0.556540000000     0.973500000000     0.845150000000     0.110444   
C182     C      0.663810000000     0.173460000000     0.415440000000    -0.0358866  
C183     C      0.727010000000     0.214420000000     0.452090000000     0.0528685  
C184     C      0.636970000000     0.035550000000     0.874970000000     0.0567542  
C185     C      0.695890000000     0.740850000000     0.866550000000    -0.107893   
C186     C      0.726500000000     0.496500000000     0.477830000000     0.0794883  
C187     C      0.810950000000     0.603970000000     0.486790000000     0.0802653  
C188     C      0.705920000000     0.519730000000     0.459450000000    -0.0964568  
C189     C      0.692600000000     0.573250000000     0.914260000000    -0.0353684  
C190     C      0.671370000000     0.595650000000     0.895770000000    -0.0347996  
C191     C      0.718690000000     0.611650000000     0.434150000000    -0.0074559  
C192     C      0.792460000000     0.628780000000     0.468210000000    -0.0966652  
C193     C      0.677010000000     0.657530000000     0.896490000000    -0.0100367  
C194     C      0.590080000000     0.643220000000     0.868570000000    -0.0997843  
C195     C      0.704130000000     0.696670000000     0.416040000000    -0.0347626  
C196     C      0.568860000000     0.665740000000     0.850180000000     0.079701   
C197     C      0.674040000000     0.762300000000     0.847760000000     0.110855   
C198     C      0.724210000000     0.673790000000     0.434760000000    -0.0355343  
C199     C      0.739300000000     0.586570000000     0.454180000000     0.0515854  
C200     C      0.654070000000     0.680840000000     0.876900000000     0.0577671  
C201     C      0.641770000000     0.644970000000     0.722630000000    -0.107463   
C202     C      0.726290000000     0.526820000000     0.591570000000     0.0793027  
C203     C      0.836840000000     0.585020000000     0.604800000000     0.0784297  
C204     C      0.705990000000     0.551130000000     0.609770000000    -0.097611   
C205     C      0.690090000000     0.644410000000     0.642460000000    -0.0358051  
C206     C      0.670500000000     0.667720000000     0.661180000000    -0.0346173  
C207     C      0.731450000000     0.617840000000     0.645690000000    -0.00803591 
C208     C      0.818090000000     0.609440000000     0.623340000000    -0.0973327  
C209     C      0.691100000000     0.663930000000     0.683480000000    -0.00995038 
C210     C      0.671770000000     0.746300000000     0.703730000000    -0.0987713  
C211     C      0.732610000000     0.637580000000     0.686690000000    -0.0347559  
C212     C      0.649590000000     0.765480000000     0.722820000000     0.0775992  
C213     C      0.619120000000     0.664750000000     0.741590000000     0.109007   
C214     C      0.752900000000     0.615120000000     0.667970000000    -0.0357192  
C215     C      0.752100000000     0.592730000000     0.625950000000     0.0520686  
C216     C      0.667790000000     0.685460000000     0.703500000000     0.0569771  
Fe1      Fe     0.480360000000     0.827580000000     0.287700000000     1.35965    
Fe2      Fe     0.608660000000     0.838420000000     0.288530000000     1.35298    
Fe3      Fe     0.491200000000     0.711370000000     0.288910000000     1.35668    
Fe4      Fe     0.775590000000     0.418750000000     0.039320000000     1.35061    
Fe5      Fe     0.895590000000     0.412820000000     0.037560000000     1.35677    
Fe6      Fe     0.901760000000     0.537850000000     0.039380000000     1.35538    
Fe7      Fe     0.480360000000     0.827580000000     0.787700000000     1.35965    
Fe8      Fe     0.608660000000     0.838420000000     0.788530000000     1.35299    
Fe9      Fe     0.491200000000     0.711370000000     0.788910000000     1.3569     
Fe10     Fe     0.775590000000     0.418750000000     0.539320000000     1.35061    
Fe11     Fe     0.895590000000     0.412820000000     0.537560000000     1.35677    
Fe12     Fe     0.901760000000     0.537850000000     0.539380000000     1.35533    
H1       H      0.042580000000     0.464080000000     0.993840000000     0.0209308  
H2       H      0.369630000000     0.800130000000     0.341990000000     0.0238679  
H3       H      0.218260000000     0.578860000000     0.947500000000     0.0370182  
H4       H      0.166230000000     0.668310000000     0.378670000000     0.0380882  
H5       H      0.293580000000     0.763230000000     0.373820000000     0.0552157  
H6       H      0.089350000000     0.629650000000     0.410840000000     0.037521   
H7       H      0.279910000000     0.575590000000     0.371110000000     0.0591498  
H8       H      0.116490000000     0.498420000000     0.961260000000     0.0526981  
H9       H      0.072870000000     0.652790000000     0.948130000000     0.0528251  
H10      H      0.292790000000     0.614290000000     0.914670000000     0.0383493  
H11      H      0.996630000000     0.614650000000     0.979960000000     0.0229549  
H12      H      0.052430000000     0.623080000000     0.082100000000     0.0209227  
H13      H      0.390190000000     0.621340000000     0.232680000000     0.0237647  
H14      H      0.229950000000     0.673050000000     0.125910000000     0.0367374  
H15      H      0.177120000000     0.535060000000     0.195570000000     0.0383819  
H16      H      0.317200000000     0.576930000000     0.199920000000     0.0551629  
H17      H      0.099130000000     0.497330000000     0.163640000000     0.0371961  
H18      H      0.274750000000     0.733200000000     0.203570000000     0.0593122  
H19      H      0.130020000000     0.658200000000     0.113480000000     0.0523677  
H20      H      0.073510000000     0.456970000000     0.126620000000     0.0527402  
H21      H      0.305090000000     0.711790000000     0.158550000000     0.037983   
H22      H      0.993430000000     0.423500000000     0.095950000000     0.0241333  
H23      H      0.496580000000     0.903150000000     0.223040000000     0.0259508  
H24      H      0.733280000000     0.348890000000     0.105110000000     0.0275271  
H25      H      0.608080000000     0.002140000000     0.156060000000     0.0376868  
H26      H      0.747150000000     0.240690000000     0.169330000000     0.0377715  
H27      H      0.693810000000     0.275670000000     0.137490000000     0.0544599  
H28      H      0.709190000000     0.165950000000     0.202150000000     0.0379752  
H29      H      0.758280000000     0.153810000000     0.105540000000     0.058407   
H30      H      0.531710000000     0.977760000000     0.190640000000     0.0536029  
H31      H      0.730020000000     0.075950000000     0.217300000000     0.0536714  
H32      H      0.646070000000     0.076840000000     0.123270000000     0.0374996  
H33      H      0.693600000000     0.000330000000     0.249400000000     0.0220486  
H34      H      0.674280000000     0.273140000000     0.995210000000     0.0209384  
H35      H      0.687380000000     0.950050000000     0.342640000000     0.0233799  
H36      H      0.651680000000     0.212050000000     0.916100000000     0.0381671  
H37      H      0.707440000000     0.035500000000     0.412730000000     0.0368882  
H38      H      0.723580000000     0.024860000000     0.374220000000     0.0534273  
H39      H      0.746490000000     0.111910000000     0.944790000000     0.0381081  
H40      H      0.544670000000     0.033400000000     0.370560000000     0.0577101  
H41      H      0.631290000000     0.196870000000     0.963090000000     0.053831   
H42      H      0.829260000000     0.244170000000     0.945930000000     0.0542568  
H43      H      0.615720000000     0.138470000000     0.383130000000     0.0368941  
H44      H      0.870980000000     0.321120000000     0.977590000000     0.0234259  
H45      H      0.852600000000     0.638230000000     0.997070000000     0.0207988  
H46      H      0.518670000000     0.634160000000     0.344360000000     0.0236983  
H47      H      0.742900000000     0.704470000000     0.949830000000     0.0366913  
H48      H      0.651300000000     0.564930000000     0.380740000000     0.0379509  
H49      H      0.556190000000     0.596660000000     0.376370000000     0.0547972  
H50      H      0.688990000000     0.525920000000     0.412790000000     0.0372119  
H51      H      0.745600000000     0.770660000000     0.373160000000     0.0588018  
H52      H      0.820620000000     0.680660000000     0.964710000000     0.052263   
H53      H      0.663530000000     0.485130000000     0.949590000000     0.0523998  
H54      H      0.708470000000     0.744440000000     0.917030000000     0.037974   
H55      H      0.699340000000     0.444350000000     0.981090000000     0.023122   
H56      H      0.888530000000     0.599360000000     0.103400000000     0.024684   
H57      H      0.653080000000     0.812960000000     0.221970000000     0.0272838  
H58      H      0.784470000000     0.594530000000     0.170960000000     0.0379723  
H59      H      0.638160000000     0.687480000000     0.158280000000     0.0378272  
H60      H      0.692360000000     0.779240000000     0.189270000000     0.0545115  
H61      H      0.673280000000     0.647530000000     0.125430000000     0.0376295  
H62      H      0.639090000000     0.597750000000     0.222660000000     0.0587039  
H63      H      0.855260000000     0.641820000000     0.135440000000     0.0535274  
H64      H      0.654350000000     0.536610000000     0.111360000000     0.0534225  
H65      H      0.749500000000     0.634460000000     0.203700000000     0.0378782  
H66      H      0.689050000000     0.494420000000     0.079480000000     0.0214369  
H67      H      0.042580000000     0.464080000000     0.493840000000     0.0209144  
H68      H      0.369630000000     0.800130000000     0.841990000000     0.0238741  
H69      H      0.218260000000     0.578860000000     0.447500000000     0.0370129  
H70      H      0.166230000000     0.668310000000     0.878670000000     0.0380872  
H71      H      0.293580000000     0.763230000000     0.873820000000     0.0552155  
H72      H      0.089350000000     0.629650000000     0.910840000000     0.0375223  
H73      H      0.279910000000     0.575590000000     0.871110000000     0.0591482  
H74      H      0.116490000000     0.498420000000     0.461270000000     0.0527183  
H75      H      0.072870000000     0.652790000000     0.448130000000     0.0528375  
H76      H      0.292790000000     0.614290000000     0.414670000000     0.0383476  
H77      H      0.996630000000     0.614650000000     0.479960000000     0.0229303  
H78      H      0.052430000000     0.623080000000     0.582100000000     0.0209131  
H79      H      0.390190000000     0.621340000000     0.732680000000     0.0237629  
H80      H      0.229950000000     0.673050000000     0.625910000000     0.0367385  
H81      H      0.177120000000     0.535060000000     0.695570000000     0.0383819  
H82      H      0.317200000000     0.576930000000     0.699920000000     0.055163   
H83      H      0.099130000000     0.497330000000     0.663640000000     0.0371951  
H84      H      0.274750000000     0.733200000000     0.703570000000     0.0593122  
H85      H      0.130020000000     0.658200000000     0.613480000000     0.0523704  
H86      H      0.073510000000     0.456970000000     0.626620000000     0.0527418  
H87      H      0.305090000000     0.711790000000     0.658550000000     0.0379834  
H88      H      0.993430000000     0.423500000000     0.595950000000     0.0241249  
H89      H      0.496580000000     0.903150000000     0.723040000000     0.0259547  
H90      H      0.733280000000     0.348890000000     0.605110000000     0.0275259  
H91      H      0.608080000000     0.002140000000     0.656060000000     0.0376884  
H92      H      0.747150000000     0.240690000000     0.669330000000     0.0377694  
H93      H      0.693810000000     0.275670000000     0.637490000000     0.0544634  
H94      H      0.709190000000     0.165950000000     0.702150000000     0.037974   
H95      H      0.758280000000     0.153810000000     0.605540000000     0.0584268  
H96      H      0.531710000000     0.977760000000     0.690640000000     0.0536404  
H97      H      0.730020000000     0.075950000000     0.717300000000     0.0536747  
H98      H      0.646070000000     0.076840000000     0.623270000000     0.0375004  
H99      H      0.693600000000     0.000330000000     0.749400000000     0.0220476  
H100     H      0.674280000000     0.273140000000     0.495220000000     0.0209457  
H101     H      0.687380000000     0.950050000000     0.842640000000     0.0233809  
H102     H      0.651680000000     0.212050000000     0.416100000000     0.0381665  
H103     H      0.707440000000     0.035500000000     0.912740000000     0.0368903  
H104     H      0.723580000000     0.024860000000     0.874220000000     0.0534299  
H105     H      0.746490000000     0.111910000000     0.444790000000     0.038106   
H106     H      0.544670000000     0.033400000000     0.870560000000     0.0577107  
H107     H      0.631290000000     0.196870000000     0.463090000000     0.0538269  
H108     H      0.829260000000     0.244170000000     0.445930000000     0.0542556  
H109     H      0.615720000000     0.138470000000     0.883130000000     0.0368943  
H110     H      0.870980000000     0.321120000000     0.477590000000     0.0234198  
H111     H      0.852600000000     0.638230000000     0.497070000000     0.0207913  
H112     H      0.518670000000     0.634160000000     0.844360000000     0.0236982  
H113     H      0.742900000000     0.704470000000     0.449830000000     0.0367319  
H114     H      0.651300000000     0.564930000000     0.880740000000     0.0379573  
H115     H      0.556190000000     0.596660000000     0.876370000000     0.0547968  
H116     H      0.688990000000     0.525920000000     0.912790000000     0.037201   
H117     H      0.745600000000     0.770660000000     0.873160000000     0.0588037  
H118     H      0.820620000000     0.680660000000     0.464710000000     0.052255   
H119     H      0.663530000000     0.485130000000     0.449590000000     0.0523924  
H120     H      0.708470000000     0.744440000000     0.417030000000     0.0379613  
H121     H      0.699340000000     0.444350000000     0.481090000000     0.0231165  
H122     H      0.888530000000     0.599360000000     0.603400000000     0.024681   
H123     H      0.653080000000     0.812960000000     0.721970000000     0.0272781  
H124     H      0.784470000000     0.594530000000     0.670960000000     0.0379717  
H125     H      0.638160000000     0.687480000000     0.658280000000     0.0378274  
H126     H      0.692360000000     0.779240000000     0.689270000000     0.0545126  
H127     H      0.673280000000     0.647530000000     0.625430000000     0.0376312  
H128     H      0.639090000000     0.597750000000     0.722660000000     0.0587058  
H129     H      0.855260000000     0.641820000000     0.635440000000     0.0535271  
H130     H      0.654350000000     0.536610000000     0.611360000000     0.0534238  
H131     H      0.749500000000     0.634460000000     0.703700000000     0.0378772  
H132     H      0.689050000000     0.494420000000     0.579480000000     0.0214392  
N1       N      0.369130000000     0.709490000000     0.337400000000    -0.217208   
N2       N      0.014240000000     0.536790000000     0.989300000000    -0.21693    
N3       N      0.374420000000     0.702680000000     0.237840000000    -0.216183   
N4       N      0.017330000000     0.520790000000     0.086660000000    -0.215687   
N5       N      0.769690000000     0.295230000000     0.086130000000    -0.216309   
N6       N      0.592400000000     0.946350000000     0.238630000000    -0.216152   
N7       N      0.595910000000     0.948930000000     0.337230000000    -0.216716   
N8       N      0.775650000000     0.302450000000     0.988820000000    -0.215842   
N9       N      0.610210000000     0.724030000000     0.339390000000    -0.216329   
N10      N      0.778600000000     0.538240000000     0.991420000000    -0.215928   
N11      N      0.622030000000     0.725030000000     0.241490000000    -0.216534   
N12      N      0.791280000000     0.543910000000     0.089050000000    -0.21641    
N13      N      0.369130000000     0.709490000000     0.837400000000    -0.217134   
N14      N      0.014240000000     0.536790000000     0.489290000000    -0.216862   
N15      N      0.374420000000     0.702680000000     0.737840000000    -0.216201   
N16      N      0.017330000000     0.520790000000     0.586660000000    -0.215765   
N17      N      0.769690000000     0.295230000000     0.586130000000    -0.216319   
N18      N      0.592400000000     0.946350000000     0.738630000000    -0.216151   
N19      N      0.595910000000     0.948930000000     0.837230000000    -0.216715   
N20      N      0.775650000000     0.302450000000     0.488820000000    -0.215857   
N21      N      0.610210000000     0.724030000000     0.839390000000    -0.216333   
N22      N      0.778600000000     0.538240000000     0.491420000000    -0.215941   
N23      N      0.622030000000     0.725030000000     0.741490000000    -0.21658    
N24      N      0.791280000000     0.543910000000     0.589050000000    -0.21641    
O1       O      0.416950000000     0.696500000000     0.304730000000    -0.49378    
O2       O      0.614630000000     0.805560000000     0.261000000000    -0.49874    
O3       O      0.445180000000     0.794480000000     0.315550000000    -0.501767   
O4       O      0.412340000000     0.762540000000     0.271180000000    -0.493624   
O5       O      0.524500000000     0.712910000000     0.317110000000    -0.500171   
O6       O      0.613450000000     0.906180000000     0.271390000000    -0.496943   
O7       O      0.526790000000     0.792550000000     0.288410000000    -0.877266   
O8       O      0.608160000000     0.874130000000     0.315970000000    -0.501411   
O9       O      0.537460000000     0.901020000000     0.304110000000    -0.493916   
O10      O      0.455410000000     0.704350000000     0.260630000000    -0.497073   
O11      O      0.512270000000     0.862980000000     0.259750000000    -0.50256    
O12      O      0.623610000000     0.782030000000     0.306020000000    -0.490658   
O13      O      0.557010000000     0.706440000000     0.273420000000    -0.494173   
O14      O      0.841890000000     0.551990000000     0.023360000000    -0.494693   
O15      O      0.933020000000     0.441910000000     0.065430000000    -0.502293   
O16      O      0.772610000000     0.453470000000     0.012070000000    -0.504826   
O17      O      0.769270000000     0.480720000000     0.056730000000    -0.496076   
O18      O      0.935990000000     0.541150000000     0.011310000000    -0.506107   
O19      O      0.832280000000     0.341800000000     0.053620000000    -0.492587   
O20      O      0.857700000000     0.456590000000     0.038700000000    -0.873631   
O21      O      0.861000000000     0.380770000000     0.009680000000    -0.504718   
O22      O      0.761560000000     0.347800000000     0.021710000000    -0.492321   
O23      O      0.870860000000     0.540370000000     0.067570000000    -0.50539    
O24      O      0.773180000000     0.381350000000     0.066730000000    -0.500847   
O25      O      0.967960000000     0.472880000000     0.021130000000    -0.497697   
O26      O      0.972150000000     0.543140000000     0.055450000000    -0.495762   
O27      O      0.416950000000     0.696500000000     0.804730000000    -0.493966   
O28      O      0.614630000000     0.805560000000     0.761000000000    -0.498859   
O29      O      0.445180000000     0.794480000000     0.815550000000    -0.501826   
O30      O      0.412340000000     0.762540000000     0.771180000000    -0.493644   
O31      O      0.524500000000     0.712910000000     0.817110000000    -0.50018    
O32      O      0.613450000000     0.906180000000     0.771390000000    -0.496958   
O33      O      0.526790000000     0.792550000000     0.788420000000    -0.877296   
O34      O      0.608160000000     0.874130000000     0.815970000000    -0.50138    
O35      O      0.537460000000     0.901020000000     0.804110000000    -0.4939     
O36      O      0.455410000000     0.704350000000     0.760640000000    -0.497276   
O37      O      0.512270000000     0.862980000000     0.759750000000    -0.502593   
O38      O      0.623610000000     0.782030000000     0.806020000000    -0.490673   
O39      O      0.557010000000     0.706440000000     0.773410000000    -0.494305   
O40      O      0.841890000000     0.551990000000     0.523360000000    -0.494686   
O41      O      0.933020000000     0.441910000000     0.565430000000    -0.502208   
O42      O      0.772610000000     0.453470000000     0.512070000000    -0.504821   
O43      O      0.769270000000     0.480720000000     0.556730000000    -0.496074   
O44      O      0.935990000000     0.541150000000     0.511310000000    -0.506056   
O45      O      0.832280000000     0.341800000000     0.553620000000    -0.492591   
O46      O      0.857700000000     0.456590000000     0.538700000000    -0.873623   
O47      O      0.861000000000     0.380770000000     0.509680000000    -0.504713   
O48      O      0.761560000000     0.347800000000     0.521710000000    -0.492322   
O49      O      0.870860000000     0.540370000000     0.567570000000    -0.505393   
O50      O      0.773180000000     0.381350000000     0.566730000000    -0.500849   
O51      O      0.967960000000     0.472880000000     0.521130000000    -0.497643   
O52      O      0.972150000000     0.543140000000     0.555450000000    -0.495581   
S1       S      0.365550000000     0.596510000000     0.336510000000    -0.0258153  
S2       S      0.352210000000     0.801370000000     0.239350000000    -0.0255964  
S3       S      0.804940000000     0.218410000000     0.065460000000    -0.0249348  
S4       S      0.484990000000     0.951230000000     0.335120000000    -0.0251275  
S5       S      0.723960000000     0.833560000000     0.338240000000    -0.0259293  
S6       S      0.595850000000     0.617200000000     0.263280000000    -0.0229483  
S7       S      0.365550000000     0.596510000000     0.836510000000    -0.0257962  
S8       S      0.352210000000     0.801370000000     0.739350000000    -0.0256034  
S9       S      0.804940000000     0.218410000000     0.565460000000    -0.0249118  
S10      S      0.484990000000     0.951230000000     0.835120000000    -0.0251235  
S11      S      0.723960000000     0.833560000000     0.838250000000    -0.025951   
S12      S      0.595850000000     0.617200000000     0.763280000000    -0.0229548  


