data_structure

_audit_creation_method RASPA-1.0
_audit_creation_date 2023-6-4
_audit_author_name 'Poobodin Mano'

_cell_length_a    19.0678
_cell_length_b    19.165
_cell_length_c    22.7113
_cell_angle_alpha 90
_cell_angle_beta  90
_cell_angle_gamma 120.498
_cell_volume      7151.23

_symmetry_cell_setting          triclinic
_symmetry_space_group_name_Hall 'P 1'
_symmetry_space_group_name_H-M  'P 1'
_symmetry_Int_Tables_number     1

_symmetry_equiv_pos_as_xyz 'x,y,z'

loop_
_atom_site_label
_atom_site_type_symbol
_atom_site_fract_x
_atom_site_fract_y
_atom_site_fract_z
_atom_site_charge
C1       C      0.592120000000     0.735680000000     0.598080000000     0.485173   
C2       C      0.581600000000     0.724460000000     0.756200000000     0.487911   
C3       C      0.364450000000     0.710230000000     0.756080000000     0.488715   
C4       C      0.556410000000     0.924520000000     0.597170000000     0.48497    
C5       C      0.569110000000     0.927380000000     0.755300000000     0.488445   
C6       C      0.365370000000     0.698380000000     0.598070000000     0.485378   
C7       C      0.772240000000     0.529910000000     0.099850000000     0.487969   
C8       C      0.783940000000     0.539550000000     0.258010000000     0.48497    
C9       C      0.974050000000     0.504760000000     0.258000000000     0.485263   
C10      C      0.758610000000     0.313950000000     0.099050000000     0.488198   
C11      C      0.746990000000     0.314070000000     0.257110000000     0.485422   
C12      C      0.976350000000     0.518020000000     0.099960000000     0.488905   
C13      C      0.207550000000     0.686750000000     0.867560000000    -0.07829    
C14      C      0.197410000000     0.620780000000     0.901580000000     0.0293973  
C15      C      0.240500000000     0.581980000000     0.885040000000    -0.0773216  
C16      C      0.292950000000     0.609270000000     0.836430000000     0.0509744  
C17      C      0.304890000000     0.677020000000     0.804410000000    -0.158153   
C18      C      0.261610000000     0.715290000000     0.820260000000     0.0515693  
C19      C      0.142990000000     0.593920000000     0.954290000000     0.029318   
C20      C      0.132910000000     0.650440000000     0.987350000000    -0.0781238  
C21      C      0.078930000000     0.625510000000     0.034670000000     0.051328   
C22      C      0.035650000000     0.543900000000     0.051500000000    -0.158048   
C23      C      0.047470000000     0.487460000000     0.020400000000     0.050999   
C24      C      0.099840000000     0.512000000000     0.971780000000    -0.0772745  
C25      C      0.164200000000     0.623010000000     0.350000000000    -0.0780537  
C26      C      0.141480000000     0.578760000000     0.402720000000     0.0283176  
C27      C      0.063990000000     0.509320000000     0.407410000000    -0.0780569  
C28      C      0.010060000000     0.484190000000     0.359820000000     0.0478189  
C29      C      0.032110000000     0.529360000000     0.307380000000    -0.156406   
C30      C      0.109590000000     0.599080000000     0.302930000000     0.0479203  
C31      C      0.197840000000     0.606540000000     0.453300000000     0.0283187  
C32      C      0.274950000000     0.614520000000     0.448310000000    -0.0780129  
C33      C      0.328870000000     0.642600000000     0.495950000000     0.0477619  
C34      C      0.307160000000     0.665040000000     0.548750000000    -0.15657    
C35      C      0.230020000000     0.657230000000     0.553530000000     0.048029   
C36      C      0.175420000000     0.627260000000     0.506410000000    -0.0780936  
C37      C      0.560100000000     0.013830000000     0.447850000000    -0.0779781  
C38      C      0.629650000000     0.091110000000     0.452460000000     0.0282517  
C39      C      0.674410000000     0.113840000000     0.505060000000    -0.0779862  
C40      C      0.650850000000     0.059460000000     0.552090000000     0.0477657  
C41      C      0.580950000000     0.982220000000     0.547740000000    -0.156233   
C42      C      0.535330000000     0.960140000000     0.495400000000     0.0475922  
C43      C      0.656900000000     0.147280000000     0.401920000000     0.028338   
C44      C      0.677360000000     0.125200000000     0.348560000000    -0.078129   
C45      C      0.706680000000     0.179530000000     0.301430000000     0.048025   
C46      C      0.714090000000     0.256080000000     0.306430000000    -0.156531   
C47      C      0.691900000000     0.277450000000     0.359490000000     0.0477551  
C48      C      0.664480000000     0.223800000000     0.407150000000    -0.0780135  
C49      C      0.700780000000     0.083100000000     0.868480000000    -0.0780994  
C50      C      0.643560000000     0.093160000000     0.901000000000     0.0292609  
C51      C      0.561460000000     0.050240000000     0.882940000000    -0.0772606  
C52      C      0.537420000000     0.998130000000     0.834330000000     0.0508756  
C53      C      0.594530000000     0.986350000000     0.803780000000    -0.157793   
C54      C      0.676330000000     0.029400000000     0.821180000000     0.0511406  
C55      C      0.669900000000     0.147310000000     0.953730000000     0.0292821  
C56      C      0.735840000000     0.157440000000     0.988240000000    -0.0782145  
C57      C      0.764040000000     0.211300000000     0.035490000000     0.0513755  
C58      C      0.725460000000     0.254450000000     0.050840000000    -0.157817   
C59      C      0.657650000000     0.242470000000     0.018380000000     0.0506191  
C60      C      0.630710000000     0.190180000000     0.969800000000    -0.0771356  
C61      C      0.779730000000     0.660150000000     0.971930000000    -0.0770618  
C62      C      0.697450000000     0.620540000000     0.954300000000     0.0291598  
C63      C      0.640240000000     0.553230000000     0.987260000000    -0.0779774  
C64      C      0.664830000000     0.524290000000     0.034540000000     0.0509347  
C65      C      0.746800000000     0.563390000000     0.051470000000    -0.157412   
C66      C      0.803950000000     0.632400000000     0.020520000000     0.0504802  
C67      C      0.670880000000     0.647880000000     0.901560000000     0.0292098  
C68      C      0.710460000000     0.730160000000     0.884970000000    -0.0770905  
C69      C      0.683290000000     0.755040000000     0.836400000000     0.0504798  
C70      C      0.614870000000     0.698540000000     0.804440000000    -0.157504   
C71      C      0.575890000000     0.616600000000     0.820300000000     0.0511784  
C72      C      0.604300000000     0.591390000000     0.867540000000    -0.0781106  
C73      C      0.674940000000     0.728770000000     0.448140000000    -0.0778815  
C74      C      0.682150000000     0.659690000000     0.453270000000     0.0282674  
C75      C      0.661110000000     0.616610000000     0.506500000000    -0.078019   
C76      C      0.631660000000     0.641280000000     0.553600000000     0.047862   
C77      C      0.624730000000     0.710630000000     0.548710000000    -0.156239   
C78      C      0.647420000000     0.754680000000     0.495760000000     0.0475727  
C79      C      0.709730000000     0.631270000000     0.402770000000     0.0282298  
C80      C      0.665520000000     0.609440000000     0.349920000000    -0.0779475  
C81      C      0.689450000000     0.579220000000     0.302860000000     0.0477101  
C82      C      0.759170000000     0.572300000000     0.307440000000    -0.156095   
C83      C      0.804260000000     0.595650000000     0.360020000000     0.0475037  
C84      C      0.779110000000     0.623960000000     0.407590000000    -0.0778984  
Fe1      Fe     0.463240000000     0.686340000000     0.677140000000     1.34178    
Fe2      Fe     0.445470000000     0.827400000000     0.676590000000     1.34274    
Fe3      Fe     0.606020000000     0.846690000000     0.676650000000     1.34005    
Fe4      Fe     0.895270000000     0.554000000000     0.179030000000     1.3415     
Fe5      Fe     0.876430000000     0.394540000000     0.178540000000     1.34287    
Fe6      Fe     0.734280000000     0.411670000000     0.178490000000     1.34036    
H1       H      0.235480000000     0.531780000000     0.910320000000     0.0486333  
H2       H      0.326320000000     0.579220000000     0.825160000000     0.0263069  
H3       H      0.269070000000     0.767120000000     0.795700000000     0.021489   
H4       H      0.173720000000     0.716760000000     0.877180000000     0.0486201  
H5       H      0.166770000000     0.714390000000     0.976970000000     0.0485728  
H6       H      0.071560000000     0.670370000000     0.058510000000     0.0217384  
H7       H      0.014100000000     0.423970000000     0.032420000000     0.026461   
H8       H      0.104780000000     0.466280000000     0.947240000000     0.0486254  
H9       H      0.045410000000     0.474440000000     0.447810000000     0.0500799  
H10      H      0.950490000000     0.430470000000     0.364460000000     0.0297899  
H11      H      0.128160000000     0.634830000000     0.262940000000     0.0272753  
H12      H      0.223610000000     0.677030000000     0.345700000000     0.049992   
H13      H      0.293270000000     0.598800000000     0.407610000000     0.0500472  
H14      H      0.388190000000     0.648540000000     0.491050000000     0.0298017  
H15      H      0.211730000000     0.673920000000     0.593800000000     0.0272354  
H16      H      0.116300000000     0.621890000000     0.510960000000     0.0500164  
H17      H      0.728530000000     0.173080000000     0.509300000000     0.0499641  
H18      H      0.686940000000     0.078070000000     0.592010000000     0.0272653  
H19      H      0.481470000000     0.900770000000     0.490820000000     0.029932   
H20      H      0.524820000000     0.995240000000     0.407550000000     0.0500448  
H21      H      0.672270000000     0.066540000000     0.343810000000     0.05       
H22      H      0.723200000000     0.161500000000     0.260960000000     0.0271889  
H23      H      0.697560000000     0.336310000000     0.364570000000     0.0297766  
H24      H      0.648940000000     0.241860000000     0.448030000000     0.0500624  
H25      H      0.515200000000     0.055180000000     0.907030000000     0.0485809  
H26      H      0.473760000000     0.964960000000     0.821880000000     0.0264732  
H27      H      0.721720000000     0.022080000000     0.797780000000     0.021852   
H28      H      0.764910000000     0.116780000000     0.879290000000     0.0485326  
H29      H      0.766100000000     0.123780000000     0.979020000000     0.0485826  
H30      H      0.815890000000     0.218770000000     0.060410000000     0.0213934  
H31      H      0.627360000000     0.275710000000     0.029270000000     0.0262315  
H32      H      0.580510000000     0.185140000000     0.944160000000     0.0485674  
H33      H      0.576010000000     0.522490000000     0.976830000000     0.0485145  
H34      H      0.619410000000     0.471500000000     0.058250000000     0.0218069  
H35      H      0.867720000000     0.663160000000     0.032610000000     0.0264094  
H36      H      0.825980000000     0.711400000000     0.947510000000     0.0485124  
H37      H      0.761170000000     0.775850000000     0.910210000000     0.0485251  
H38      H      0.713920000000     0.818760000000     0.825130000000     0.0262848  
H39      H      0.523580000000     0.571690000000     0.795780000000     0.0215446  
H40      H      0.573680000000     0.527250000000     0.877140000000     0.0485401  
H41      H      0.665900000000     0.562910000000     0.511180000000     0.0499781  
H42      H      0.614770000000     0.606360000000     0.593980000000     0.0272212  
H43      H      0.642150000000     0.808060000000     0.490750000000     0.0298532  
H44      H      0.690940000000     0.762810000000     0.407360000000     0.0500135  
H45      H      0.611560000000     0.614260000000     0.345490000000     0.049973   
H46      H      0.653760000000     0.561850000000     0.262760000000     0.0272568  
H47      H      0.857960000000     0.590440000000     0.364780000000     0.0299135  
H48      H      0.813980000000     0.640530000000     0.448070000000     0.050022   
O1       O      0.628140000000     0.778490000000     0.720080000000    -0.483174   
O2       O      0.482880000000     0.872290000000     0.604770000000    -0.492521   
O3       O      0.506120000000     0.687970000000     0.748230000000    -0.495529   
O4       O      0.544780000000     0.684110000000     0.635110000000    -0.487564   
O5       O      0.605330000000     0.888830000000     0.747550000000    -0.49499    
O6       O      0.360930000000     0.745380000000     0.634840000000    -0.487816   
O7       O      0.504940000000     0.786810000000     0.677140000000    -0.864336   
O8       O      0.403850000000     0.785270000000     0.747840000000    -0.496005   
O9       O      0.371890000000     0.663950000000     0.720170000000    -0.483995   
O10      O      0.613810000000     0.808820000000     0.605180000000    -0.491671   
O11      O      0.417470000000     0.677650000000     0.605460000000    -0.491962   
O12      O      0.514990000000     0.919040000000     0.719110000000    -0.48458    
O13      O      0.608530000000     0.929840000000     0.634000000000    -0.486565   
O14      O      0.731950000000     0.492440000000     0.221040000000    -0.486763   
O15      O      0.834030000000     0.353350000000     0.107270000000    -0.495955   
O16      O      0.857440000000     0.561280000000     0.250670000000    -0.492169   
O17      O      0.826440000000     0.576030000000     0.136080000000    -0.483913   
O18      O      0.725810000000     0.365700000000     0.249980000000    -0.491557   
O19      O      0.968320000000     0.464130000000     0.135970000000    -0.484702   
O20      O      0.835300000000     0.453410000000     0.178350000000    -0.864338   
O21      O      0.921660000000     0.431570000000     0.250380000000    -0.492451   
O22      O      0.979140000000     0.556600000000     0.221290000000    -0.487214   
O23      O      0.735640000000     0.454760000000     0.107590000000    -0.495087   
O24      O      0.937360000000     0.553740000000     0.107970000000    -0.495715   
O25      O      0.794280000000     0.310070000000     0.220180000000    -0.488128   
O26      O      0.711990000000     0.321110000000     0.135030000000    -0.483213   


