data_structure

_audit_creation_method RASPA-1.0
_audit_creation_date 2023-6-4
_audit_author_name 'Poobodin Mano'

_cell_length_a    24.7558
_cell_length_b    24.8732
_cell_length_c    28.554
_cell_angle_alpha 90
_cell_angle_beta  90
_cell_angle_gamma 120.434
_cell_volume      15159.7

_symmetry_cell_setting          triclinic
_symmetry_space_group_name_Hall 'P 1'
_symmetry_space_group_name_H-M  'P 1'
_symmetry_Int_Tables_number     1

_symmetry_equiv_pos_as_xyz 'x,y,z'

loop_
_atom_site_label
_atom_site_type_symbol
_atom_site_fract_x
_atom_site_fract_y
_atom_site_fract_z
_atom_site_charge
C1       C      0.571110000000     0.742380000000     0.633440000000     0.488516   
C2       C      0.562610000000     0.734440000000     0.759200000000     0.48834    
C3       C      0.404490000000     0.742300000000     0.759080000000     0.488728   
C4       C      0.562620000000     0.899550000000     0.632750000000     0.4883     
C5       C      0.571750000000     0.900520000000     0.758490000000     0.488741   
C6       C      0.404100000000     0.732750000000     0.633380000000     0.488853   
C7       C      0.785160000000     0.508150000000     0.133420000000     0.488603   
C8       C      0.793640000000     0.516120000000     0.259180000000     0.488073   
C9       C      0.951710000000     0.508160000000     0.259100000000     0.488506   
C10      C      0.793560000000     0.350940000000     0.132760000000     0.488334   
C11      C      0.784420000000     0.349990000000     0.258500000000     0.488618   
C12      C      0.952140000000     0.517690000000     0.133390000000     0.488672   
C13      C      0.998120000000     0.540620000000     0.094700000000    -0.15875    
C14      C      0.025920000000     0.506270000000     0.080180000000     0.0530357  
C15      C      0.069350000000     0.527730000000     0.043570000000    -0.0838952  
C16      C      0.086780000000     0.584590000000     0.021050000000     0.040671   
C17      C      0.058900000000     0.618960000000     0.035820000000    -0.0835541  
C18      C      0.014710000000     0.596970000000     0.071940000000     0.05164    
C19      C      0.133860000000     0.607960000000     0.982480000000    -0.00380556 
C20      C      0.184810000000     0.597680000000     0.983420000000    -0.0361422  
C21      C      0.228680000000     0.619170000000     0.947090000000    -0.036777   
C22      C      0.223220000000     0.652310000000     0.909400000000    -0.00390915 
C23      C      0.172850000000     0.663160000000     0.908440000000    -0.0368146  
C24      C      0.128390000000     0.640820000000     0.944370000000    -0.0361318  
C25      C      0.269950000000     0.675470000000     0.871110000000     0.0411873  
C26      C      0.286410000000     0.635350000000     0.849010000000    -0.0846999  
C27      C      0.329870000000     0.656990000000     0.812400000000     0.0530565  
C28      C      0.358450000000     0.719450000000     0.797740000000    -0.158913   
C29      C      0.342540000000     0.759760000000     0.820310000000     0.0519488  
C30      C      0.298270000000     0.737820000000     0.856370000000    -0.0844967  
C31      C      0.997760000000     0.531010000000     0.297750000000    -0.158624   
C32      C      0.013720000000     0.490760000000     0.320270000000     0.0516345  
C33      C      0.057970000000     0.512660000000     0.356330000000    -0.0835906  
C34      C      0.086560000000     0.575110000000     0.371300000000     0.040647   
C35      C      0.069790000000     0.615060000000     0.349010000000    -0.0838036  
C36      C      0.026280000000     0.593380000000     0.312440000000     0.0528532  
C37      C      0.133690000000     0.598460000000     0.409840000000    -0.00380827 
C38      C      0.127720000000     0.559600000000     0.447760000000    -0.0361647  
C39      C      0.172240000000     0.581330000000     0.483640000000    -0.0367989  
C40      C      0.223160000000     0.642670000000     0.482830000000    -0.00392543 
C41      C      0.229120000000     0.681790000000     0.445340000000    -0.0367436  
C42      C      0.185190000000     0.659800000000     0.409060000000    -0.0361638  
C43      C      0.269860000000     0.665900000000     0.521160000000     0.0412107  
C44      C      0.297500000000     0.631410000000     0.535740000000    -0.0844448  
C45      C      0.341680000000     0.653420000000     0.571880000000     0.0518872  
C46      C      0.358140000000     0.709780000000     0.594670000000    -0.158929   
C47      C      0.330240000000     0.744120000000     0.580150000000     0.0531805  
C48      C      0.286890000000     0.722620000000     0.543480000000    -0.0847802  
C49      C      0.585450000000     0.945450000000     0.594130000000    -0.158627   
C50      C      0.648240000000     0.974280000000     0.579510000000     0.0526962  
C51      C      0.669790000000     0.017650000000     0.542950000000    -0.084543   
C52      C      0.629240000000     0.033740000000     0.520880000000     0.0409556  
C53      C      0.566560000000     0.005140000000     0.535580000000    -0.0844421  
C54      C      0.544710000000     0.960990000000     0.571560000000     0.0516112  
C55      C      0.652250000000     0.080370000000     0.482650000000    -0.00396217 
C56      C      0.685660000000     0.075310000000     0.444880000000    -0.0368538  
C57      C      0.706790000000     0.118940000000     0.408550000000    -0.0362474  
C58      C      0.695870000000     0.169270000000     0.409540000000    -0.0039333  
C59      C      0.662800000000     0.174390000000     0.447760000000    -0.0361957  
C60      C      0.640820000000     0.130160000000     0.483700000000    -0.0369452  
C61      C      0.718770000000     0.216080000000     0.370920000000     0.0406164  
C62      C      0.775860000000     0.233830000000     0.348170000000    -0.0840443  
C63      C      0.796880000000     0.277000000000     0.311530000000     0.0530265  
C64      C      0.761870000000     0.304230000000     0.297200000000    -0.158851   
C65      C      0.705300000000     0.287310000000     0.320180000000     0.0517191  
C66      C      0.683730000000     0.243370000000     0.356330000000    -0.0836486  
C67      C      0.594290000000     0.946290000000     0.797180000000    -0.158872   
C68      C      0.650850000000     0.963200000000     0.820180000000     0.0517124  
C69      C      0.672410000000     0.007140000000     0.856330000000    -0.0836031  
C70      C      0.637370000000     0.034440000000     0.870910000000     0.040643   
C71      C      0.580300000000     0.016700000000     0.848140000000    -0.0839463  
C72      C      0.559280000000     0.973530000000     0.811500000000     0.0530405  
C73      C      0.660260000000     0.081230000000     0.909540000000    -0.0038618  
C74      C      0.693310000000     0.076090000000     0.947770000000    -0.0361631  
C75      C      0.715290000000     0.120320000000     0.983710000000    -0.0368523  
C76      C      0.703880000000     0.170120000000     0.982660000000    -0.00390728 
C77      C      0.670490000000     0.175200000000     0.944880000000    -0.0367806  
C78      C      0.649360000000     0.131570000000     0.908540000000    -0.036194   
C79      C      0.726910000000     0.216750000000     0.020890000000     0.0410204  
C80      C      0.789580000000     0.245320000000     0.035590000000    -0.0844405  
C81      C      0.811440000000     0.289470000000     0.071580000000     0.0517423  
C82      C      0.770720000000     0.305040000000     0.094140000000    -0.15867    
C83      C      0.707940000000     0.276240000000     0.079510000000     0.0528111  
C84      C      0.686370000000     0.232880000000     0.042950000000    -0.0846054  
C85      C      0.762680000000     0.531310000000     0.094740000000    -0.158657   
C86      C      0.706040000000     0.491250000000     0.071800000000     0.0515934  
C87      C      0.684490000000     0.513470000000     0.035660000000    -0.0835971  
C88      C      0.719610000000     0.576060000000     0.021020000000     0.0405201  
C89      C      0.776750000000     0.615820000000     0.043740000000    -0.0839388  
C90      C      0.797760000000     0.593820000000     0.080380000000     0.0528476  
C91      C      0.696710000000     0.599750000000     0.982360000000    -0.00386992 
C92      C      0.663450000000     0.561170000000     0.944240000000    -0.0362374  
C93      C      0.641340000000     0.583150000000     0.908330000000    -0.0368965  
C94      C      0.652830000000     0.644490000000     0.909280000000    -0.00398375 
C95      C      0.686480000000     0.683370000000     0.946930000000    -0.0368358  
C96      C      0.707740000000     0.661130000000     0.983250000000    -0.0362386  
C97      C      0.629650000000     0.667790000000     0.871070000000     0.0409404  
C98      C      0.566900000000     0.633160000000     0.856530000000    -0.0843915  
C99      C      0.544900000000     0.655140000000     0.820540000000     0.0515156  
C100     C      0.585570000000     0.711670000000     0.797820000000    -0.158551   
C101     C      0.648420000000     0.746180000000     0.812300000000     0.052747   
C102     C      0.670120000000     0.724690000000     0.848850000000    -0.0846044  
C103     C      0.593600000000     0.719230000000     0.594760000000    -0.158581   
C104     C      0.650230000000     0.759300000000     0.571820000000     0.0515922  
C105     C      0.671780000000     0.737090000000     0.535670000000    -0.08356    
C106     C      0.636680000000     0.674490000000     0.521040000000     0.0405694  
C107     C      0.579560000000     0.634720000000     0.543770000000    -0.0838379  
C108     C      0.558540000000     0.656710000000     0.580410000000     0.052846   
C109     C      0.659590000000     0.650810000000     0.482380000000    -0.00383276 
C110     C      0.692830000000     0.689390000000     0.444240000000    -0.0361912  
C111     C      0.714930000000     0.667410000000     0.408330000000    -0.0368274  
C112     C      0.703460000000     0.606080000000     0.409280000000    -0.0039316  
C113     C      0.669840000000     0.567200000000     0.446940000000    -0.0367732  
C114     C      0.648580000000     0.589430000000     0.483270000000    -0.0362195  
C115     C      0.726640000000     0.582780000000     0.371060000000     0.0409868  
C116     C      0.789380000000     0.617420000000     0.356500000000    -0.0843537  
C117     C      0.811360000000     0.595430000000     0.320510000000     0.0516217  
C118     C      0.770700000000     0.538900000000     0.297800000000    -0.158499   
C119     C      0.707850000000     0.504390000000     0.312290000000     0.0527292  
C120     C      0.686160000000     0.525880000000     0.348850000000    -0.0845554  
Fe1      Fe     0.473530000000     0.714100000000     0.696330000000     1.34251    
Fe2      Fe     0.473840000000     0.830540000000     0.695880000000     1.34351    
Fe3      Fe     0.591120000000     0.831330000000     0.695950000000     1.34105    
Fe4      Fe     0.882720000000     0.536400000000     0.196330000000     1.34232    
Fe5      Fe     0.882350000000     0.419930000000     0.195900000000     1.34356    
Fe6      Fe     0.765100000000     0.419190000000     0.195950000000     1.34127    
H1       H      0.013520000000     0.462290000000     0.096730000000     0.0252323  
H2       H      0.088660000000     0.499220000000     0.032630000000     0.0495748  
H3       H      0.071810000000     0.663440000000     0.020000000000     0.04939    
H4       H      0.994290000000     0.624660000000     0.082520000000     0.0248377  
H5       H      0.191470000000     0.573750000000     0.012530000000     0.0372038  
H6       H      0.267530000000     0.610810000000     0.948860000000     0.0383603  
H7       H      0.167270000000     0.688030000000     0.879450000000     0.037986   
H8       H      0.089270000000     0.648650000000     0.941830000000     0.0374598  
H9       H      0.264970000000     0.586990000000     0.859620000000     0.0504751  
H10      H      0.341450000000     0.624940000000     0.795820000000     0.0252123  
H11      H      0.363760000000     0.808140000000     0.809790000000     0.0248597  
H12      H      0.286670000000     0.769760000000     0.873120000000     0.0504226  
H13      H      0.992770000000     0.442490000000     0.309540000000     0.0248719  
H14      H      0.070370000000     0.480710000000     0.371940000000     0.0494098  
H15      H      0.089690000000     0.663050000000     0.360110000000     0.0495664  
H16      H      0.014400000000     0.625330000000     0.296060000000     0.0252364  
H17      H      0.088180000000     0.512560000000     0.450190000000     0.037469   
H18      H      0.166260000000     0.550500000000     0.512490000000     0.0379827  
H19      H      0.268400000000     0.729120000000     0.443700000000     0.0383378  
H20      H      0.192210000000     0.690770000000     0.380090000000     0.0372164  
H21      H      0.285420000000     0.587740000000     0.518820000000     0.0504137  
H22      H      0.362390000000     0.625940000000     0.582280000000     0.0248419  
H23      H      0.342270000000     0.787880000000     0.596890000000     0.0252231  
H24      H      0.265970000000     0.749880000000     0.533000000000     0.0504994  
H25      H      0.680630000000     0.963010000000     0.596080000000     0.0252588  
H26      H      0.718420000000     0.039300000000     0.532360000000     0.0503014  
H27      H      0.534270000000     0.016440000000     0.518850000000     0.0501697  
H28      H      0.496060000000     0.939560000000     0.582050000000     0.0248182  
H29      H      0.694460000000     0.036900000000     0.443050000000     0.0381008  
H30      H      0.730890000000     0.112560000000     0.379360000000     0.0370335  
H31      H      0.654500000000     0.213040000000     0.450370000000     0.0372057  
H32      H      0.615740000000     0.135440000000     0.512750000000     0.0378195  
H33      H      0.804880000000     0.214990000000     0.358960000000     0.0494446  
H34      H      0.841060000000     0.289670000000     0.294820000000     0.0251589  
H35      H      0.677110000000     0.307280000000     0.309750000000     0.0246944  
H36      H      0.639050000000     0.230200000000     0.372320000000     0.0492587  
H37      H      0.679040000000     0.943230000000     0.809750000000     0.024709   
H38      H      0.717080000000     0.020310000000     0.872330000000     0.0493015  
H39      H      0.551280000000     0.035550000000     0.858920000000     0.049522   
H40      H      0.515110000000     0.960870000000     0.794770000000     0.0251963  
H41      H      0.701590000000     0.037430000000     0.950370000000     0.0372618  
H42      H      0.740360000000     0.115030000000     0.012760000000     0.0378374  
H43      H      0.661700000000     0.213620000000     0.943050000000     0.0381475  
H44      H      0.625260000000     0.137960000000     0.879350000000     0.0370692  
H45      H      0.821850000000     0.233990000000     0.018870000000     0.0503485  
H46      H      0.860080000000     0.310860000000     0.082080000000     0.0249136  
H47      H      0.675560000000     0.287540000000     0.096080000000     0.0252552  
H48      H      0.637750000000     0.211250000000     0.032350000000     0.0503591  
H49      H      0.677780000000     0.442870000000     0.082270000000     0.0247569  
H50      H      0.639760000000     0.481630000000     0.019730000000     0.049243   
H51      H      0.805820000000     0.663900000000     0.032920000000     0.0494132  
H52      H      0.841970000000     0.625640000000     0.097070000000     0.0251857  
H53      H      0.655070000000     0.514120000000     0.941690000000     0.037222   
H54      H      0.616090000000     0.552480000000     0.879360000000     0.0377995  
H55      H      0.695360000000     0.730690000000     0.948690000000     0.0380914  
H56      H      0.732010000000     0.691910000000     0.012360000000     0.0370057  
H57      H      0.534670000000     0.589370000000     0.873370000000     0.0501659  
H58      H      0.496220000000     0.627500000000     0.810170000000     0.0248353  
H59      H      0.680760000000     0.790040000000     0.795610000000     0.0252763  
H60      H      0.718790000000     0.752080000000     0.859310000000     0.0503264  
H61      H      0.678480000000     0.807680000000     0.582270000000     0.0247645  
H62      H      0.716500000000     0.768940000000     0.519730000000     0.0492786  
H63      H      0.550500000000     0.586620000000     0.532960000000     0.0494807  
H64      H      0.514340000000     0.624880000000     0.597110000000     0.0252419  
H65      H      0.701190000000     0.736430000000     0.441700000000     0.0372561  
H66      H      0.740160000000     0.698080000000     0.379350000000     0.0378282  
H67      H      0.660980000000     0.519890000000     0.448700000000     0.0381382  
H68      H      0.624330000000     0.558650000000     0.512380000000     0.0370699  
H69      H      0.821610000000     0.661220000000     0.373330000000     0.0503305  
H70      H      0.860040000000     0.623080000000     0.310120000000     0.0249347  
H71      H      0.675510000000     0.460510000000     0.295610000000     0.0253029  
H72      H      0.637490000000     0.498480000000     0.359330000000     0.0503502  
O1       O      0.600640000000     0.773900000000     0.730260000000    -0.487601   
O2       O      0.504920000000     0.864250000000     0.639070000000    -0.494783   
O3       O      0.504900000000     0.711690000000     0.753030000000    -0.494434   
O4       O      0.531510000000     0.704660000000     0.662450000000    -0.488426   
O5       O      0.594300000000     0.865820000000     0.752490000000    -0.493749   
O6       O      0.405840000000     0.772130000000     0.662190000000    -0.488685   
O7       O      0.512850000000     0.791990000000     0.696060000000    -0.862995   
O8       O      0.439800000000     0.799740000000     0.752690000000    -0.494695   
O9       O      0.405890000000     0.704420000000     0.730330000000    -0.488052   
O10      O      0.593900000000     0.799850000000     0.639420000000    -0.493982   
O11      O      0.439170000000     0.710600000000     0.639640000000    -0.494402   
O12      O      0.532210000000     0.898460000000     0.729500000000    -0.488867   
O13      O      0.600720000000     0.898390000000     0.661600000000    -0.487328   
O14      O      0.755600000000     0.476650000000     0.230240000000    -0.487452   
O15      O      0.851270000000     0.386220000000     0.139090000000    -0.494695   
O16      O      0.851360000000     0.538850000000     0.253010000000    -0.494355   
O17      O      0.824760000000     0.545860000000     0.162430000000    -0.48839    
O18      O      0.761890000000     0.384710000000     0.252490000000    -0.493823   
O19      O      0.950370000000     0.478310000000     0.162220000000    -0.48862    
O20      O      0.843370000000     0.458510000000     0.196060000000    -0.863018   
O21      O      0.916380000000     0.450720000000     0.252710000000    -0.494673   
O22      O      0.950350000000     0.546060000000     0.230340000000    -0.487848   
O23      O      0.762350000000     0.450680000000     0.139420000000    -0.494016   
O24      O      0.917090000000     0.539870000000     0.139630000000    -0.494118   
O25      O      0.823950000000     0.352020000000     0.229510000000    -0.488849   
O26      O      0.755470000000     0.352130000000     0.161600000000    -0.487449   


