data_structure

_audit_creation_method RASPA-1.0
_audit_creation_date 2023-6-4
_audit_author_name 'Poobodin Mano'

_cell_length_a    20.4397
_cell_length_b    20.8825
_cell_length_c    20.1495
_cell_angle_alpha 90
_cell_angle_beta  90
_cell_angle_gamma 120.502
_cell_volume      7410.25

_symmetry_cell_setting          triclinic
_symmetry_space_group_name_Hall 'P 1'
_symmetry_space_group_name_H-M  'P 1'
_symmetry_Int_Tables_number     1

_symmetry_equiv_pos_as_xyz 'x,y,z'

loop_
_atom_site_label
_atom_site_type_symbol
_atom_site_fract_x
_atom_site_fract_y
_atom_site_fract_z
_atom_site_charge
C1       C      0.487940000000     0.661080000000     0.636790000000     0.505955   
C2       C      0.494080000000     0.662240000000     0.813670000000     0.512075   
C3       C      0.298470000000     0.683620000000     0.818980000000     0.518872   
C4       C      0.501820000000     0.866540000000     0.636320000000     0.518916   
C5       C      0.515500000000     0.867330000000     0.811410000000     0.507634   
C6       C      0.293890000000     0.665880000000     0.642960000000     0.516991   
C7       C      0.674410000000     0.450430000000     0.146280000000     0.515243   
C8       C      0.678180000000     0.439270000000     0.321710000000     0.509053   
C9       C      0.882810000000     0.454800000000     0.320170000000     0.51463    
C10      C      0.709210000000     0.270340000000     0.125910000000     0.513409   
C11      C      0.688420000000     0.246330000000     0.298920000000     0.51456    
C12      C      0.891890000000     0.481730000000     0.143300000000     0.507283   
C13      C      0.237680000000     0.718130000000     0.907810000000     0.016922   
C14      C      0.980300000000     0.472670000000     0.065860000000     0.0189279  
C15      C      0.951720000000     0.576320000000     0.054080000000     0.0163378  
C16      C      0.064030000000     0.526870000000     0.052590000000    -0.103796   
C17      C      0.153440000000     0.688760000000     0.924140000000    -0.103563   
C18      C      0.035300000000     0.630860000000     0.035310000000    -0.103268   
C19      C      0.116800000000     0.610750000000     0.952470000000     0.0188317  
C20      C      0.072770000000     0.589350000000     0.008370000000     0.0190578  
C21      C      0.211870000000     0.586890000000     0.898050000000     0.0186567  
C22      C      0.127610000000     0.556750000000     0.910210000000    -0.103546   
C23      C      0.230930000000     0.579950000000     0.549060000000     0.0195198  
C24      C      0.938000000000     0.548040000000     0.409670000000     0.0205099  
C25      C      0.933940000000     0.427760000000     0.420760000000     0.0197001  
C26      C      0.018920000000     0.591580000000     0.437120000000    -0.102287   
C27      C      0.146190000000     0.531830000000     0.534870000000    -0.102544   
C28      C      0.016640000000     0.465150000000     0.442890000000    -0.102109   
C29      C      0.111420000000     0.576640000000     0.508940000000     0.0177613  
C30      C      0.048060000000     0.544210000000     0.468820000000     0.0179033  
C31      C      0.222790000000     0.694330000000     0.560390000000     0.0193173  
C32      C      0.138680000000     0.652430000000     0.541140000000    -0.102369   
C33      C      0.702650000000     0.144590000000     0.344550000000     0.018214   
C34      C      0.483310000000     0.943620000000     0.553850000000     0.0171425  
C35      C      0.613670000000     0.960500000000     0.574460000000     0.0184062  
C36      C      0.502510000000     0.958810000000     0.480150000000    -0.103284   
C37      C      0.700800000000     0.115340000000     0.414650000000    -0.1041     
C38      C      0.632470000000     0.975870000000     0.500480000000    -0.104272   
C39      C      0.620620000000     0.076840000000     0.441820000000     0.0196373  
C40      C      0.587410000000     0.008350000000     0.471110000000     0.0193048  
C41      C      0.585600000000     0.152400000000     0.369590000000     0.0171446  
C42      C      0.583840000000     0.124180000000     0.439850000000    -0.103196   
C43      C      0.611080000000     0.931460000000     0.900530000000     0.0167718  
C44      C      0.611400000000     0.186550000000     0.045410000000     0.0191154  
C45      C      0.747220000000     0.219440000000     0.031610000000     0.0170572  
C46      C      0.584450000000     0.104470000000     0.035730000000    -0.103466   
C47      C      0.664000000000     0.015130000000     0.913870000000    -0.103421   
C48      C      0.721930000000     0.137480000000     0.018250000000    -0.103414   
C49      C      0.618910000000     0.049710000000     0.939230000000     0.0190046  
C50      C      0.640690000000     0.095860000000     0.992990000000     0.0186021  
C51      C      0.499540000000     0.950640000000     0.888190000000     0.0190322  
C52      C      0.551390000000     0.034100000000     0.896510000000    -0.103734   
C53      C      0.494920000000     0.629920000000     0.930510000000     0.01537    
C54      C      0.615180000000     0.436240000000     0.037560000000     0.0194866  
C55      C      0.618260000000     0.527230000000     0.121960000000     0.0164623  
C56      C      0.631210000000     0.491520000000     0.981520000000    -0.103909   
C57      C      0.496800000000     0.567100000000     0.968230000000    -0.101926   
C58      C      0.623590000000     0.579330000000     0.065980000000    -0.102374   
C59      C      0.567530000000     0.563460000000     0.952990000000     0.0186839  
C60      C      0.598600000000     0.539940000000     0.999610000000     0.0188617  
C61      C      0.592840000000     0.636340000000     0.849850000000     0.0191117  
C62      C      0.587470000000     0.566960000000     0.880430000000    -0.103872   
C63      C      0.563550000000     0.674530000000     0.536470000000     0.0192664  
C64      C      0.568200000000     0.403310000000     0.396680000000     0.0167482  
C65      C      0.696310000000     0.508330000000     0.426200000000     0.0194203  
C66      C      0.531130000000     0.445780000000     0.426220000000    -0.10097    
C67      C      0.607520000000     0.635190000000     0.521540000000    -0.102175   
C68      C      0.667410000000     0.561350000000     0.438880000000    -0.102063   
C69      C      0.556210000000     0.555080000000     0.498890000000     0.0174843  
C70      C      0.584540000000     0.520210000000     0.460180000000     0.0169796  
C71      C      0.444010000000     0.555430000000     0.559040000000     0.0178869  
C72      C      0.479190000000     0.510140000000     0.533270000000    -0.101583   
Fe1      Fe     0.376330000000     0.636390000000     0.733180000000     1.27635    
Fe2      Fe     0.387820000000     0.788680000000     0.726080000000     1.27982    
Fe3      Fe     0.532070000000     0.777430000000     0.722070000000     1.276      
Fe4      Fe     0.796270000000     0.488580000000     0.234340000000     1.27412    
Fe5      Fe     0.813730000000     0.351630000000     0.221720000000     1.28254    
Fe6      Fe     0.655370000000     0.333550000000     0.221230000000     1.27268    
H1       H      0.152000000000     0.728810000000     0.959460000000     0.0420863  
H2       H      0.951640000000     0.444110000000     0.018940000000     0.0259543  
H3       H      0.240120000000     0.588000000000     0.945570000000     0.0255145  
H4       H      0.100740000000     0.499500000000     0.929970000000     0.0426983  
H5       H      0.091530000000     0.496460000000     0.033940000000     0.0427863  
H6       H      0.034820000000     0.670070000000     0.998400000000     0.0422321  
H7       H      0.258910000000     0.770670000000     0.879410000000     0.0318007  
H8       H      0.976560000000     0.429440000000     0.100400000000     0.0324665  
H9       H      0.099660000000     0.551490000000     0.861530000000     0.0522315  
H10      H      0.067040000000     0.663120000000     0.079820000000     0.0488444  
H11      H      0.217070000000     0.547550000000     0.864380000000     0.0329927  
H12      H      0.917000000000     0.555370000000     0.008130000000     0.0281176  
H13      H      0.122690000000     0.687840000000     0.878320000000     0.0487396  
H14      H      0.092410000000     0.551480000000     0.100680000000     0.0528246  
H15      H      0.930900000000     0.608080000000     0.082560000000     0.0330345  
H16      H      0.270850000000     0.731890000000     0.954700000000     0.0271851  
H17      H      0.141290000000     0.489770000000     0.498450000000     0.0416895  
H18      H      0.896780000000     0.534870000000     0.450860000000     0.0243069  
H19      H      0.257890000000     0.720860000000     0.515440000000     0.0255274  
H20      H      0.132100000000     0.690910000000     0.507720000000     0.0416879  
H21      H      0.017700000000     0.630750000000     0.473580000000     0.0415892  
H22      H      0.018120000000     0.428370000000     0.481940000000     0.0417509  
H23      H      0.249410000000     0.544190000000     0.573860000000     0.0327649  
H24      H      0.930230000000     0.584890000000     0.374750000000     0.0312087  
H25      H      0.103910000000     0.643750000000     0.586310000000     0.0496809  
H26      H      0.052170000000     0.466850000000     0.400380000000     0.0496831  
H27      H      0.232360000000     0.739960000000     0.594730000000     0.0325445  
H28      H      0.896180000000     0.412390000000     0.464910000000     0.0262861  
H29      H      0.116050000000     0.502680000000     0.581070000000     0.0498231  
H30      H      0.058210000000     0.624350000000     0.396180000000     0.0500644  
H31      H      0.920020000000     0.375340000000     0.394780000000     0.0334084  
H32      H      0.262880000000     0.599530000000     0.501560000000     0.0258753  
H33      H      0.723980000000     0.077750000000     0.409830000000     0.0420411  
H34      H      0.492950000000     0.995310000000     0.578600000000     0.0240982  
H35      H      0.545530000000     0.105290000000     0.337570000000     0.024177   
H36      H      0.525130000000     0.096760000000     0.459180000000     0.0425571  
H37      H      0.468040000000     0.979670000000     0.456550000000     0.0423307  
H38      H      0.694780000000     0.012900000000     0.497210000000     0.0420183  
H39      H      0.763460000000     0.179450000000     0.330410000000     0.0322184  
H40      H      0.421770000000     0.901710000000     0.557650000000     0.0335035  
H41      H      0.617240000000     0.173000000000     0.472690000000     0.0518844  
H42      H      0.617270000000     0.923160000000     0.474440000000     0.050093   
H43      H      0.564980000000     0.192400000000     0.372460000000     0.0338564  
H44      H      0.638650000000     0.014030000000     0.601960000000     0.026686   
H45      H      0.738650000000     0.162110000000     0.447960000000     0.0499436  
H46      H      0.484840000000     0.904930000000     0.455190000000     0.0515643  
H47      H      0.641780000000     0.930070000000     0.592540000000     0.0319774  
H48      H      0.675610000000     0.097180000000     0.309190000000     0.0262666  
H49      H      0.707200000000     0.020080000000     0.950140000000     0.0421945  
H50      H      0.609730000000     0.211490000000     0.997120000000     0.0247754  
H51      H      0.474080000000     0.925090000000     0.936910000000     0.0256156  
H52      H      0.518310000000     0.059290000000     0.914230000000     0.0426586  
H53      H      0.525270000000     0.074870000000     0.017450000000     0.0426969  
H54      H      0.762650000000     0.137440000000     0.981840000000     0.0419911  
H55      H      0.644620000000     0.911170000000     0.873720000000     0.0326485  
H56      H      0.570920000000     0.191100000000     0.079130000000     0.0323982  
H57      H      0.573040000000     0.058980000000     0.846770000000     0.052632   
H58      H      0.725600000000     0.110910000000     0.064800000000     0.0488478  
H59      H      0.452090000000     0.941130000000     0.854880000000     0.0328839  
H60      H      0.755540000000     0.248900000000     0.983590000000     0.0265492  
H61      H      0.693590000000     0.043590000000     0.867270000000     0.0488189  
H62      H      0.582230000000     0.079670000000     0.085120000000     0.0526011  
H63      H      0.803260000000     0.245500000000     0.056930000000     0.0320366  
H64      H      0.592630000000     0.901120000000     0.948550000000     0.0273095  
H65      H      0.489370000000     0.573140000000     0.021930000000     0.0426411  
H66      H      0.553080000000     0.396410000000     0.041710000000     0.0270487  
H67      H      0.641430000000     0.687270000000     0.871670000000     0.0269753  
H68      H      0.643380000000     0.570990000000     0.873260000000     0.0428926  
H69      H      0.604730000000     0.458910000000     0.935660000000     0.0430503  
H70      H      0.591340000000     0.606600000000     0.080800000000     0.0427123  
H71      H      0.435870000000     0.619480000000     0.932190000000     0.0348553  
H72      H      0.643440000000     0.404210000000     0.024670000000     0.0333131  
H73      H      0.543160000000     0.516350000000     0.854610000000     0.0504837  
H74      H      0.683890000000     0.624300000000     0.060980000000     0.0503255  
H75      H      0.603840000000     0.635620000000     0.795820000000     0.0323     
H76      H      0.558170000000     0.493840000000     0.138540000000     0.0243232  
H77      H      0.446910000000     0.513370000000     0.952630000000     0.049786   
H78      H      0.693460000000     0.526800000000     0.973440000000     0.0512372  
H79      H      0.652080000000     0.561960000000     0.164740000000     0.0325145  
H80      H      0.531880000000     0.683340000000     0.956640000000     0.0261329  
H81      H      0.649310000000     0.669020000000     0.482530000000     0.0417277  
H82      H      0.566610000000     0.363580000000     0.434340000000     0.0255005  
H83      H      0.411270000000     0.562160000000     0.518260000000     0.0248844  
H84      H      0.436190000000     0.467890000000     0.499400000000     0.0414176  
H85      H      0.487480000000     0.406600000000     0.461510000000     0.0415235  
H86      H      0.704840000000     0.599990000000     0.478080000000     0.0415634  
H87      H      0.604410000000     0.730260000000     0.557010000000     0.0325447  
H88      H      0.532800000000     0.369540000000     0.354170000000     0.0321368  
H89      H      0.486480000000     0.480480000000     0.575860000000     0.0488283  
H90      H      0.673740000000     0.593790000000     0.393140000000     0.0503593  
H91      H      0.402390000000     0.522360000000     0.598510000000     0.0320615  
H92      H      0.695740000000     0.479960000000     0.473150000000     0.025709   
H93      H      0.638890000000     0.635480000000     0.566720000000     0.0498084  
H94      H      0.501350000000     0.456880000000     0.385640000000     0.0473087  
H95      H      0.756560000000     0.541880000000     0.410180000000     0.0332872  
H96      H      0.540000000000     0.683190000000     0.489760000000     0.0265345  
N1       N      0.943360000000     0.512360000000     0.092560000000    -0.192594   
N2       N      0.247930000000     0.662850000000     0.870540000000    -0.195086   
N3       N      0.922390000000     0.478210000000     0.378380000000    -0.1948     
N4       N      0.245970000000     0.644450000000     0.589590000000    -0.195105   
N5       N      0.530790000000     0.917890000000     0.586270000000    -0.195589   
N6       N      0.662680000000     0.186820000000     0.340950000000    -0.194646   
N7       N      0.689810000000     0.225650000000     0.071080000000    -0.194564   
N8       N      0.543250000000     0.917350000000     0.862550000000    -0.193142   
N9       N      0.644040000000     0.476070000000     0.100720000000    -0.196163   
N10      N      0.521940000000     0.636620000000     0.861620000000    -0.195436   
N11      N      0.647640000000     0.452700000000     0.376850000000    -0.193228   
N12      N      0.501400000000     0.629730000000     0.582680000000    -0.192691   
O1       O      0.537970000000     0.705300000000     0.769230000000    -0.492868   
O2       O      0.431520000000     0.831200000000     0.647610000000    -0.500987   
O3       O      0.423780000000     0.637800000000     0.810080000000    -0.493522   
O4       O      0.440290000000     0.619880000000     0.680610000000    -0.482875   
O5       O      0.543730000000     0.826770000000     0.799370000000    -0.49353    
O6       O      0.305260000000     0.721460000000     0.677480000000    -0.491841   
O7       O      0.431670000000     0.734240000000     0.727000000000    -0.718719   
O8       O      0.339860000000     0.751310000000     0.804400000000    -0.50156    
O9       O      0.301600000000     0.634400000000     0.784860000000    -0.494962   
O10      O      0.525380000000     0.730770000000     0.644580000000    -0.4942     
O11      O      0.325710000000     0.629510000000     0.657760000000    -0.502954   
O12      O      0.463540000000     0.864450000000     0.774620000000    -0.488324   
O13      O      0.546310000000     0.857570000000     0.673520000000    -0.49651    
O14      O      0.635700000000     0.390860000000     0.279090000000    -0.481904   
O15      O      0.778260000000     0.312530000000     0.140470000000    -0.500085   
O16      O      0.748800000000     0.477610000000     0.312280000000    -0.5017     
O17      O      0.720920000000     0.494150000000     0.189060000000    -0.490179   
O18      O      0.652120000000     0.280050000000     0.293100000000    -0.499028   
O19      O      0.891730000000     0.431710000000     0.179190000000    -0.488297   
O20      O      0.754940000000     0.390990000000     0.225830000000    -0.719413   
O21      O      0.852410000000     0.387590000000     0.303030000000    -0.498241   
O22      O      0.877900000000     0.500970000000     0.282780000000    -0.489598   
O23      O      0.652120000000     0.382200000000     0.148160000000    -0.500094   
O24      O      0.847170000000     0.505270000000     0.156290000000    -0.491239   
O25      O      0.746130000000     0.264400000000     0.262990000000    -0.493754   
O26      O      0.657510000000     0.266450000000     0.163550000000    -0.489173   


