data_structure

_audit_creation_method RASPA-1.0
_audit_creation_date 2023-6-4
_audit_author_name 'Poobodin Mano'

_cell_length_a    23.6287
_cell_length_b    24.4801
_cell_length_c    28.1723
_cell_angle_alpha 90
_cell_angle_beta  90
_cell_angle_gamma 120.444
_cell_volume      14049

_symmetry_cell_setting          triclinic
_symmetry_space_group_name_Hall 'P 1'
_symmetry_space_group_name_H-M  'P 1'
_symmetry_Int_Tables_number     1

_symmetry_equiv_pos_as_xyz 'x,y,z'

loop_
_atom_site_label
_atom_site_type_symbol
_atom_site_fract_x
_atom_site_fract_y
_atom_site_fract_z
_atom_site_charge
C1       C      0.580900000000     0.729270000000     0.627620000000     0.514773   
C2       C      0.555810000000     0.722660000000     0.753040000000     0.516926   
C3       C      0.388280000000     0.726280000000     0.736810000000     0.516889   
C4       C      0.566140000000     0.882910000000     0.613370000000     0.513502   
C5       C      0.557690000000     0.888670000000     0.741490000000     0.51053    
C6       C      0.403810000000     0.711360000000     0.609840000000     0.520916   
C7       C      0.766360000000     0.489520000000     0.125250000000     0.51449    
C8       C      0.784310000000     0.494140000000     0.251300000000     0.51758    
C9       C      0.946540000000     0.479280000000     0.241520000000     0.520922   
C10      C      0.770740000000     0.329690000000     0.114310000000     0.508665   
C11      C      0.774520000000     0.325100000000     0.242840000000     0.509221   
C12      C      0.942900000000     0.499630000000     0.115000000000     0.520288   
C13      C      0.257510000000     0.617350000000     0.822590000000    -0.0317147  
C14      C      0.062770000000     0.516690000000     0.021070000000    -0.0316623  
C15      C      0.003340000000     0.587190000000     0.058680000000    -0.00174639 
C16      C      0.032610000000     0.500430000000     0.070660000000    -4.98701e-05
C17      C      0.109960000000     0.593350000000     0.924730000000    -0.0565088  
C18      C      0.245090000000     0.657840000000     0.942280000000    -0.0546899  
C19      C      0.133200000000     0.606380000000     0.971830000000     0.0607827  
C20      C      0.036990000000     0.599560000000     0.010210000000    -0.0313329  
C21      C      0.222350000000     0.645280000000     0.895410000000     0.0608633  
C22      C      0.278430000000     0.723750000000     0.834090000000    -0.03164    
C23      C      0.154260000000     0.613830000000     0.886770000000    -0.0565568  
C24      C      0.340940000000     0.752970000000     0.804110000000    -0.000631696
C25      C      0.317770000000     0.639580000000     0.790820000000    -0.00089518 
C26      C      0.200960000000     0.638750000000     0.980100000000    -0.0547709  
C27      C      0.078760000000     0.584390000000     0.325550000000    -0.0321876  
C28      C      0.302210000000     0.601730000000     0.514100000000    -0.0324406  
C29      C      0.343210000000     0.729600000000     0.546750000000     0.000368463
C30      C      0.367750000000     0.640260000000     0.540230000000    -0.000195913
C31      C      0.244650000000     0.615480000000     0.406950000000    -0.0545657  
C32      C      0.115200000000     0.551030000000     0.439900000000    -0.054483   
C33      C      0.232490000000     0.611480000000     0.455850000000     0.0607334  
C34      C      0.279270000000     0.687700000000     0.520100000000    -0.0323283  
C35      C      0.127290000000     0.557960000000     0.390970000000     0.0607698  
C36      C      0.058500000000     0.477340000000     0.333800000000    -0.0321635  
C37      C      0.192620000000     0.588260000000     0.374640000000    -0.0566626  
C38      C      0.992050000000     0.449160000000     0.308600000000    -0.000287252
C39      C      0.013990000000     0.561820000000     0.299530000000    -6.54355e-05
C40      C      0.167230000000     0.576760000000     0.472210000000    -0.0566469  
C41      C      0.737820000000     0.181480000000     0.311900000000    -0.0321155  
C42      C      0.572940000000     0.959310000000     0.498360000000    -0.031871   
C43      C      0.661910000000     0.972850000000     0.575160000000    -0.00100818 
C44      C      0.558510000000     0.901560000000     0.528310000000    -0.0021291  
C45      C      0.728820000000     0.083190000000     0.443750000000    -0.0542503  
C46      C      0.645790000000     0.125880000000     0.412340000000    -0.055455   
C47      C      0.664880000000     0.055050000000     0.462020000000     0.0600121  
C48      C      0.670740000000     0.027950000000     0.544060000000    -0.0321286  
C49      C      0.710600000000     0.154830000000     0.394750000000     0.0600309  
C50      C      0.704570000000     0.243680000000     0.358240000000    -0.0314838  
C51      C      0.751720000000     0.133080000000     0.411290000000    -0.054197   
C52      C      0.744070000000     0.302180000000     0.327000000000    -0.00283475 
C53      C      0.781330000000     0.237490000000     0.279540000000    -0.000920947
C54      C      0.623920000000     0.078030000000     0.446570000000    -0.055438   
C55      C      0.750140000000     0.260180000000     0.993200000000    -0.0316082  
C56      C      0.571510000000     0.025150000000     0.813280000000    -0.0316285  
C57      C      0.612700000000     0.930920000000     0.817410000000    -0.000825604
C58      C      0.569030000000     0.989660000000     0.767620000000    -0.00177531 
C59      C      0.702120000000     0.095890000000     0.905630000000    -0.0543446  
C60      C      0.616320000000     0.131110000000     0.944150000000    -0.0554438  
C61      C      0.639960000000     0.072320000000     0.885140000000     0.060406   
C62      C      0.606870000000     0.965580000000     0.860290000000    -0.0314591  
C63      C      0.678280000000     0.153050000000     0.965410000000     0.0601816  
C64      C      0.650530000000     0.194320000000     0.036830000000    -0.031593   
C65      C      0.720390000000     0.134400000000     0.945750000000    -0.0541557  
C66      C      0.680880000000     0.228810000000     0.083720000000    -0.00184293 
C67      C      0.788700000000     0.294570000000     0.037500000000    -0.000653355
C68      C      0.596630000000     0.089690000000     0.905310000000    -0.0556454  
C69      C      0.547000000000     0.630180000000     0.861810000000    -0.0315559  
C70      C      0.758580000000     0.599810000000     0.038350000000    -0.0319465  
C71      C      0.675370000000     0.470090000000     0.071930000000    -0.00205097 
C72      C      0.769480000000     0.582110000000     0.088230000000    -5.30455e-05
C73      C      0.640790000000     0.618920000000     0.989040000000    -0.0544671  
C74      C      0.670040000000     0.594670000000     0.898100000000    -0.0544521  
C75      C      0.672770000000     0.584240000000     0.983810000000     0.0606757  
C76      C      0.668310000000     0.493560000000     0.023260000000    -0.0311796  
C77      C      0.635930000000     0.627320000000     0.903280000000     0.060752   
C78      C      0.659230000000     0.714070000000     0.850260000000    -0.0318322  
C79      C      0.623260000000     0.641150000000     0.949240000000    -0.0566797  
C80      C      0.645840000000     0.727100000000     0.799620000000    -0.000172005
C81      C      0.526290000000     0.639050000000     0.812360000000    -0.00140918 
C82      C      0.689210000000     0.574000000000     0.937920000000    -0.056701   
C83      C      0.651670000000     0.716190000000     0.514690000000    -0.0318067  
C84      C      0.677960000000     0.525190000000     0.332420000000    -0.0317813  
C85      C      0.814780000000     0.557820000000     0.323990000000    -0.000265221
C86      C      0.703480000000     0.518640000000     0.284080000000    -0.00152893 
C87      C      0.755630000000     0.654420000000     0.422490000000    -0.0541103  
C88      C      0.633490000000     0.579410000000     0.465460000000    -0.0552426  
C89      C      0.711900000000     0.594830000000     0.403070000000     0.0601792  
C90      C      0.781940000000     0.558140000000     0.370560000000    -0.03195    
C91      C      0.678290000000     0.638880000000     0.485430000000     0.0601269  
C92      C      0.610610000000     0.617590000000     0.557740000000    -0.0318247  
C93      C      0.739770000000     0.675390000000     0.463680000000    -0.0541264  
C94      C      0.608430000000     0.648360000000     0.604450000000    -0.00131235 
C95      C      0.654980000000     0.752520000000     0.559670000000    -0.000758324
C96      C      0.650830000000     0.556880000000     0.425720000000    -0.0553534  
Fe1      Fe     0.469550000000     0.697750000000     0.682840000000     1.34837    
Fe2      Fe     0.465830000000     0.813680000000     0.672240000000     1.34484    
Fe3      Fe     0.589040000000     0.819320000000     0.686150000000     1.34491    
Fe4      Fe     0.873520000000     0.514760000000     0.184270000000     1.35258    
Fe5      Fe     0.869520000000     0.395320000000     0.174640000000     1.34683    
Fe6      Fe     0.749380000000     0.397220000000     0.185170000000     1.33796    
H1       H      0.219530000000     0.648500000000     0.016110000000     0.0440938  
H2       H      0.247490000000     0.572990000000     0.840850000000     0.0335274  
H3       H      0.283550000000     0.759420000000     0.860890000000     0.033817   
H4       H      0.036290000000     0.625800000000     0.083360000000     0.0332886  
H5       H      0.356350000000     0.636490000000     0.811250000000     0.0379319  
H6       H      0.102320000000     0.504660000000     0.019490000000     0.0337046  
H7       H      0.057510000000     0.650360000000     0.000950000000     0.0335357  
H8       H      0.005970000000     0.448020000000     0.074980000000     0.0358264  
H9       H      0.342770000000     0.791500000000     0.782000000000     0.0360444  
H10      H      0.297310000000     0.682510000000     0.949450000000     0.0441824  
H11      H      0.304120000000     0.606290000000     0.760370000000     0.0363526  
H12      H      0.057880000000     0.567430000000     0.917280000000     0.0394946  
H13      H      0.214340000000     0.606280000000     0.799970000000     0.0355205  
H14      H      0.957910000000     0.589800000000     0.054740000000     0.0390896  
H15      H      0.384190000000     0.775160000000     0.828200000000     0.0406195  
H16      H      0.024970000000     0.487390000000     0.994050000000     0.0369631  
H17      H      0.999620000000     0.570320000000     0.982990000000     0.0360116  
H18      H      0.135340000000     0.604490000000     0.850890000000     0.0394707  
H19      H      0.235360000000     0.712460000000     0.811240000000     0.036311   
H20      H      0.072820000000     0.520770000000     0.097360000000     0.037052   
H21      H      0.156410000000     0.571210000000     0.509800000000     0.0400783  
H22      H      0.091500000000     0.628750000000     0.345030000000     0.0339759  
H23      H      0.056140000000     0.441600000000     0.359400000000     0.0339055  
H24      H      0.380240000000     0.763360000000     0.521120000000     0.0346708  
H25      H      0.977720000000     0.561230000000     0.325000000000     0.0360196  
H26      H      0.306500000000     0.568760000000     0.489140000000     0.0336646  
H27      H      0.266420000000     0.718770000000     0.499560000000     0.03401    
H28      H      0.375880000000     0.607570000000     0.562810000000     0.0358229  
H29      H      0.984980000000     0.408710000000     0.286240000000     0.0359236  
H30      H      0.065210000000     0.526670000000     0.452970000000     0.0436803  
H31      H      0.021940000000     0.596880000000     0.271400000000     0.0369454  
H32      H      0.294620000000     0.640900000000     0.393860000000     0.0434823  
H33      H      0.117900000000     0.595540000000     0.298850000000     0.0369117  
H34      H      0.334530000000     0.758030000000     0.573420000000     0.0366786  
H35      H      0.952430000000     0.430160000000     0.335750000000     0.0385236  
H36      H      0.262620000000     0.572910000000     0.540120000000     0.0370451  
H37      H      0.239650000000     0.660710000000     0.546500000000     0.0374992  
H38      H      0.203440000000     0.592600000000     0.337050000000     0.0399894  
H39      H      0.097720000000     0.487410000000     0.307390000000     0.0368456  
H40      H      0.408010000000     0.661610000000     0.513600000000     0.0376735  
H41      H      0.574580000000     0.058770000000     0.459980000000     0.0389246  
H42      H      0.758910000000     0.149870000000     0.312990000000     0.0331879  
H43      H      0.701730000000     0.259790000000     0.394640000000     0.0335304  
H44      H      0.693880000000     0.955290000000     0.561290000000     0.0358622  
H45      H      0.833150000000     0.259240000000     0.291570000000     0.0367491  
H46      H      0.553230000000     0.942810000000     0.462010000000     0.0335687  
H47      H      0.724140000000     0.063430000000     0.542300000000     0.0331943  
H48      H      0.504470000000     0.871220000000     0.532760000000     0.0398998  
H49      H      0.715370000000     0.326390000000     0.322220000000     0.0411316  
H50      H      0.611810000000     0.140270000000     0.400450000000     0.0389443  
H51      H      0.778440000000     0.219480000000     0.242830000000     0.0362804  
H52      H      0.761360000000     0.066670000000     0.455160000000     0.0425711  
H53      H      0.687390000000     0.153860000000     0.296810000000     0.0381909  
H54      H      0.678350000000     0.990670000000     0.611850000000     0.036444   
H55      H      0.790020000000     0.335740000000     0.346020000000     0.0381354  
H56      H      0.546770000000     0.981810000000     0.514580000000     0.0358862  
H57      H      0.645550000000     0.051260000000     0.560620000000     0.0382677  
H58      H      0.801620000000     0.154360000000     0.398290000000     0.042566   
H59      H      0.653950000000     0.215990000000     0.343530000000     0.0356878  
H60      H      0.575600000000     0.873290000000     0.508500000000     0.0366346  
H61      H      0.547910000000     0.072180000000     0.891140000000     0.0390521  
H62      H      0.785650000000     0.261490000000     0.966610000000     0.0329099  
H63      H      0.612030000000     0.144690000000     0.045150000000     0.0333245  
H64      H      0.665290000000     0.953350000000     0.807160000000     0.0360368  
H65      H      0.820150000000     0.274860000000     0.048100000000     0.0360357  
H66      H      0.582200000000     0.073500000000     0.803450000000     0.0332285  
H67      H      0.641850000000     0.967830000000     0.887760000000     0.0331148  
H68      H      0.522790000000     0.976570000000     0.748320000000     0.0365502  
H69      H      0.645400000000     0.239000000000     0.101810000000     0.0366132  
H70      H      0.582390000000     0.144690000000     0.957670000000     0.0389696  
H71      H      0.821930000000     0.345480000000     0.028680000000     0.0401309  
H72      H      0.736150000000     0.083040000000     0.890920000000     0.0425855  
H73      H      0.726240000000     0.285270000000     0.977570000000     0.0384031  
H74      H      0.595800000000     0.881080000000     0.827790000000     0.0404247  
H75      H      0.687830000000     0.196260000000     0.107330000000     0.0357193  
H76      H      0.522380000000     0.999710000000     0.830590000000     0.0351364  
H77      H      0.556480000000     0.938600000000     0.875560000000     0.0385353  
H78      H      0.768210000000     0.150620000000     0.961380000000     0.0424451  
H79      H      0.626610000000     0.217980000000     0.018930000000     0.0350738  
H80      H      0.610200000000     0.022600000000     0.744200000000     0.0353233  
H81      H      0.715960000000     0.549390000000     0.932760000000     0.040038   
H82      H      0.514890000000     0.579800000000     0.872520000000     0.0338745  
H83      H      0.711660000000     0.727120000000     0.852590000000     0.0334893  
H84      H      0.636720000000     0.467730000000     0.095810000000     0.0332247  
H85      H      0.520250000000     0.599610000000     0.789240000000     0.0324375  
H86      H      0.774110000000     0.651020000000     0.038320000000     0.0335368  
H87      H      0.616010000000     0.465190000000     0.012070000000     0.0339397  
H88      H      0.823150000000     0.607720000000     0.095550000000     0.0363853  
H89      H      0.673120000000     0.779210000000     0.793600000000     0.0353798  
H90      H      0.681630000000     0.585110000000     0.863000000000     0.0434789  
H91      H      0.477360000000     0.635070000000     0.815120000000     0.0380996  
H92      H      0.629310000000     0.628560000000     0.024160000000     0.0435331  
H93      H      0.539130000000     0.660430000000     0.887330000000     0.0365312  
H94      H      0.666170000000     0.421040000000     0.067970000000     0.0399356  
H95      H      0.665600000000     0.706030000000     0.774290000000     0.0369235  
H96      H      0.789770000000     0.592590000000     0.012380000000     0.0379055  
H97      H      0.698630000000     0.485230000000     0.997270000000     0.0373791  
H98      H      0.599080000000     0.668200000000     0.954420000000     0.0400492  
H99      H      0.651270000000     0.744310000000     0.875790000000     0.0370032  
H100     H      0.746260000000     0.598650000000     0.114470000000     0.0359775  
H101     H      0.615540000000     0.510290000000     0.412670000000     0.0388323  
H102     H      0.689700000000     0.750290000000     0.489750000000     0.0333314  
H103     H      0.619180000000     0.577940000000     0.566120000000     0.0332158  
H104     H      0.844150000000     0.607240000000     0.310590000000     0.0347834  
H105     H      0.706120000000     0.776930000000     0.573490000000     0.0352587  
H106     H      0.638980000000     0.537180000000     0.326250000000     0.0333252  
H107     H      0.820700000000     0.593310000000     0.394560000000     0.0329496  
H108     H      0.664700000000     0.474820000000     0.266580000000     0.037151   
H109     H      0.563940000000     0.614100000000     0.624570000000     0.0373806  
H110     H      0.585290000000     0.549410000000     0.480460000000     0.0388628  
H111     H      0.642560000000     0.789410000000     0.550360000000     0.0403221  
H112     H      0.802800000000     0.684550000000     0.405840000000     0.0423444  
H113     H      0.602900000000     0.697320000000     0.497300000000     0.0396804  
H114     H      0.849320000000     0.540410000000     0.331040000000     0.0379681  
H115     H      0.651830000000     0.657840000000     0.626090000000     0.034495   
H116     H      0.655740000000     0.478670000000     0.351020000000     0.0356611  
H117     H      0.759840000000     0.510850000000     0.387990000000     0.0384955  
H118     H      0.775210000000     0.721090000000     0.478310000000     0.042364   
H119     H      0.561980000000     0.597890000000     0.540000000000     0.0367375  
H120     H      0.711780000000     0.559230000000     0.261390000000     0.0350831  
N1       N      0.345340000000     0.705620000000     0.774160000000    -0.187746   
N2       N      0.270090000000     0.666730000000     0.857590000000    -0.112772   
N3       N      0.089710000000     0.584460000000     0.012280000000    -0.112943   
N4       N      0.988690000000     0.525920000000     0.079610000000    -0.188948   
N5       N      0.987320000000     0.497310000000     0.280050000000    -0.189097   
N6       N      0.072180000000     0.535290000000     0.358950000000    -0.113091   
N7       N      0.287340000000     0.644820000000     0.487830000000    -0.113221   
N8       N      0.368870000000     0.691580000000     0.568470000000    -0.189482   
N9       N      0.761970000000     0.286060000000     0.280980000000    -0.187206   
N10      N      0.736360000000     0.205150000000     0.359580000000    -0.112629   
N11      N      0.644280000000     0.004200000000     0.496390000000    -0.11274    
N12      N      0.593180000000     0.920440000000     0.574320000000    -0.188628   
N13      N      0.745220000000     0.287490000000     0.077610000000    -0.187297   
N14      N      0.701340000000     0.194890000000     0.006270000000    -0.112344   
N15      N      0.622690000000     0.029170000000     0.845330000000    -0.112513   
N16      N      0.575060000000     0.933210000000     0.776360000000    -0.187598   
N17      N      0.574990000000     0.699720000000     0.790150000000    -0.188815   
N18      N      0.616090000000     0.646670000000     0.861030000000    -0.112954   
N19      N      0.688820000000     0.561150000000     0.025910000000    -0.113171   
N20      N      0.740180000000     0.512920000000     0.093460000000    -0.187744   
N21      N      0.610630000000     0.709030000000     0.596420000000    -0.188882   
N22      N      0.663610000000     0.664480000000     0.527080000000    -0.112619   
N23      N      0.731790000000     0.575210000000     0.360640000000    -0.112436   
N24      N      0.765920000000     0.518700000000     0.287670000000    -0.190083   
O1       O      0.597900000000     0.763600000000     0.725150000000    -0.496341   
O2       O      0.505560000000     0.844500000000     0.615520000000    -0.502036   
O3       O      0.496050000000     0.698900000000     0.743250000000    -0.504553   
O4       O      0.536770000000     0.690700000000     0.655610000000    -0.494576   
O5       O      0.581580000000     0.853070000000     0.741180000000    -0.501082   
O6       O      0.400200000000     0.751360000000     0.636050000000    -0.499487   
O7       O      0.507870000000     0.776600000000     0.680530000000    -0.87068    
O8       O      0.423170000000     0.784540000000     0.728090000000    -0.502397   
O9       O      0.394210000000     0.687150000000     0.710940000000    -0.49557    
O10      O      0.600520000000     0.787350000000     0.631390000000    -0.501894   
O11      O      0.440090000000     0.690230000000     0.622450000000    -0.503941   
O12      O      0.521690000000     0.885570000000     0.707020000000    -0.489624   
O13      O      0.601380000000     0.886400000000     0.648360000000    -0.493577   
O14      O      0.742610000000     0.455970000000     0.222000000000    -0.497874   
O15      O      0.831620000000     0.366870000000     0.117200000000    -0.499606   
O16      O      0.843850000000     0.513620000000     0.243830000000    -0.504604   
O17      O      0.811680000000     0.526580000000     0.153300000000    -0.493987   
O18      O      0.752530000000     0.362290000000     0.241200000000    -0.497488   
O19      O      0.939690000000     0.455650000000     0.140440000000    -0.500246   
O20      O      0.831150000000     0.436200000000     0.181150000000    -0.870649   
O21      O      0.910090000000     0.421630000000     0.231580000000    -0.504409   
O22      O      0.944600000000     0.520480000000     0.215570000000    -0.499964   
O23      O      0.741900000000     0.430650000000     0.129920000000    -0.500293   
O24      O      0.907020000000     0.522100000000     0.125220000000    -0.504027   
O25      O      0.808910000000     0.324860000000     0.208420000000    -0.491155   
O26      O      0.734820000000     0.328610000000     0.148120000000    -0.488278   


