data_structure

_audit_creation_method RASPA-1.0
_audit_creation_date 2023-6-4
_audit_author_name 'Poobodin Mano'

_cell_length_a    21.6223
_cell_length_b    21.1966
_cell_length_c    19.5198
_cell_angle_alpha 90
_cell_angle_beta  90
_cell_angle_gamma 120.501
_cell_volume      7708.31

_symmetry_cell_setting          triclinic
_symmetry_space_group_name_Hall 'P 1'
_symmetry_space_group_name_H-M  'P 1'
_symmetry_Int_Tables_number     1

_symmetry_equiv_pos_as_xyz 'x,y,z'

loop_
_atom_site_label
_atom_site_type_symbol
_atom_site_fract_x
_atom_site_fract_y
_atom_site_fract_z
_atom_site_charge
C1       C      0.444550000000     0.649050000000     0.662060000000     0.528805   
C2       C      0.447900000000     0.654520000000     0.842770000000     0.526616   
C3       C      0.263290000000     0.671220000000     0.846620000000     0.529415   
C4       C      0.447060000000     0.847090000000     0.652460000000     0.527849   
C5       C      0.465910000000     0.858540000000     0.832020000000     0.527122   
C6       C      0.253530000000     0.648880000000     0.667240000000     0.527028   
C7       C      0.661710000000     0.458710000000     0.158540000000     0.526551   
C8       C      0.668390000000     0.462360000000     0.338810000000     0.529109   
C9       C      0.855520000000     0.453320000000     0.339510000000     0.526203   
C10      C      0.670290000000     0.267090000000     0.152950000000     0.526906   
C11      C      0.657070000000     0.260320000000     0.333150000000     0.525928   
C12      C      0.859820000000     0.468960000000     0.159530000000     0.526223   
C13      C      0.072830000000     0.636370000000     0.932890000000    -0.0405378  
C14      C      0.207720000000     0.702200000000     0.942210000000    -0.0124588  
C15      C      0.996140000000     0.593440000000     0.033560000000     0.0125906  
C16      C      0.134200000000     0.665030000000     0.974530000000     0.012609   
C17      C      0.922400000000     0.556910000000     0.065430000000    -0.0131611  
C18      C      0.126040000000     0.657910000000     0.045980000000    -0.0438742  
C19      C      0.057540000000     0.622780000000     0.075270000000    -0.0408123  
C20      C      0.004360000000     0.600710000000     0.962130000000    -0.0437757  
C21      C      0.053780000000     0.499530000000     0.577960000000    -0.0407013  
C22      C      0.188780000000     0.560880000000     0.573860000000    -0.0127735  
C23      C      0.981850000000     0.464460000000     0.474080000000     0.0129227  
C24      C      0.116910000000     0.529030000000     0.538820000000     0.0125444  
C25      C      0.909650000000     0.427120000000     0.439190000000    -0.01334    
C26      C      0.112010000000     0.526210000000     0.467020000000    -0.0437793  
C27      C      0.045000000000     0.493930000000     0.434930000000    -0.0407773  
C28      C      0.986790000000     0.467720000000     0.545870000000    -0.0440839  
C29      C      0.496150000000     0.043960000000     0.562230000000    -0.0405951  
C30      C      0.424580000000     0.906130000000     0.553340000000    -0.0129778  
C31      C      0.537490000000     0.121630000000     0.461070000000     0.012466   
C32      C      0.464910000000     0.981050000000     0.520850000000     0.0126825  
C33      C      0.573070000000     0.196770000000     0.428900000000    -0.0132096  
C34      C      0.470280000000     0.988990000000     0.449280000000    -0.0441025  
C35      C      0.506020000000     0.058720000000     0.419650000000    -0.0408633  
C36      C      0.532330000000     0.113640000000     0.532620000000    -0.0440037  
C37      C      0.620030000000     0.060700000000     0.917250000000    -0.0407761  
C38      C      0.553960000000     0.922850000000     0.924540000000    -0.0126232  
C39      C      0.656750000000     0.136750000000     0.019380000000     0.0129955  
C40      C      0.589050000000     0.997250000000     0.957880000000     0.0125086  
C41      C      0.694270000000     0.211220000000     0.052630000000    -0.0133696  
C42      C      0.592550000000     0.004080000000     0.029530000000    -0.0437133  
C43      C      0.626440000000     0.073300000000     0.060020000000    -0.0407859  
C44      C      0.653360000000     0.129910000000     0.947740000000    -0.044219   
C45      C      0.516990000000     0.510280000000     0.074030000000    -0.0406724  
C46      C      0.580200000000     0.438050000000     0.061220000000    -0.0132686  
C47      C      0.470110000000     0.542520000000     0.975280000000     0.0126748  
C48      C      0.544040000000     0.476680000000     0.031080000000     0.0126322  
C49      C      0.430430000000     0.577400000000     0.944890000000    -0.0129912  
C50      C      0.532780000000     0.475290000000     0.960100000000    -0.0442125  
C51      C      0.496010000000     0.507780000000     0.932480000000    -0.0405794  
C52      C      0.480790000000     0.543410000000     0.046320000000    -0.0441408  
C53      C      0.511370000000     0.592420000000     0.450650000000    -0.0425023  
C54      C      0.517480000000     0.658780000000     0.560520000000    -0.0116441  
C55      C      0.554730000000     0.506780000000     0.446020000000     0.0137811  
C56      C      0.532980000000     0.608250000000     0.519380000000     0.01218    
C57      C      0.567350000000     0.453040000000     0.406940000000    -0.0130373  
C58      C      0.565550000000     0.573030000000     0.551100000000    -0.0412912  
C59      C      0.576110000000     0.522510000000     0.514790000000    -0.0432854  
C60      C      0.522620000000     0.542410000000     0.414080000000    -0.0419425  
Fe1      Fe     0.336170000000     0.624800000000     0.757580000000     1.28418    
Fe2      Fe     0.343110000000     0.773150000000     0.749080000000     1.27824    
Fe3      Fe     0.482020000000     0.766690000000     0.745150000000     1.28236    
Fe4      Fe     0.777010000000     0.492160000000     0.249620000000     1.28205    
Fe5      Fe     0.775910000000     0.346770000000     0.245980000000     1.27959    
Fe6      Fe     0.633740000000     0.346390000000     0.245410000000     1.28156    
H1       H      0.939850000000     0.469630000000     0.100640000000     0.104905   
H2       H      0.213690000000     0.748740000000     0.910740000000     0.0427815  
H3       H      0.250610000000     0.724860000000     0.981820000000     0.0381697  
H4       H      0.957850000000     0.579080000000     0.928940000000     0.0377256  
H5       H      0.078050000000     0.641420000000     0.877660000000     0.0418679  
H6       H      0.918740000000     0.598990000000     0.096360000000     0.0434012  
H7       H      0.172590000000     0.679640000000     0.079120000000     0.0377051  
H8       H      0.052360000000     0.618370000000     0.130520000000     0.0419539  
H9       H      0.879630000000     0.536100000000     0.025700000000     0.0392202  
H10      H      0.187060000000     0.594510000000     0.912140000000     0.105556   
H11      H      0.932250000000     0.533660000000     0.402360000000     0.105421   
H12      H      0.188620000000     0.516890000000     0.605100000000     0.0429304  
H13      H      0.232930000000     0.579640000000     0.535770000000     0.0392323  
H14      H      0.938810000000     0.444900000000     0.577140000000     0.0378003  
H15      H      0.056430000000     0.500730000000     0.633410000000     0.0415753  
H16      H      0.905050000000     0.379830000000     0.409990000000     0.0439294  
H17      H      0.159940000000     0.548210000000     0.435760000000     0.0376611  
H18      H      0.042280000000     0.491410000000     0.379500000000     0.0419294  
H19      H      0.865100000000     0.405930000000     0.477050000000     0.0389173  
H20      H      0.175690000000     0.651410000000     0.607460000000     0.105272   
H21      H      0.656820000000     0.177830000000     0.390350000000     0.104856   
H22      H      0.378620000000     0.902370000000     0.582500000000     0.0433468  
H23      H      0.402400000000     0.862320000000     0.513790000000     0.0379231  
H24      H      0.555560000000     0.161300000000     0.565640000000     0.0374981  
H25      H      0.492190000000     0.039020000000     0.617520000000     0.0420405  
H26      H      0.531210000000     0.200960000000     0.399500000000     0.0427736  
H27      H      0.446260000000     0.941320000000     0.416290000000     0.0375762  
H28      H      0.508710000000     0.063690000000     0.364350000000     0.0417188  
H29      H      0.595060000000     0.240560000000     0.468490000000     0.0386114  
H30      H      0.526640000000     0.920680000000     0.587400000000     0.105264   
H31      H      0.590660000000     0.190110000000     0.089990000000     0.104935   
H32      H      0.595370000000     0.919250000000     0.893760000000     0.0426425  
H33      H      0.533330000000     0.878570000000     0.963620000000     0.039517   
H34      H      0.676880000000     0.178070000000     0.915360000000     0.0375884  
H35      H      0.618350000000     0.056530000000     0.861880000000     0.0415016  
H36      H      0.741120000000     0.216400000000     0.081250000000     0.0440645  
H37      H      0.569480000000     0.955920000000     0.061910000000     0.0377906  
H38      H      0.629110000000     0.077450000000     0.115380000000     0.0422357  
H39      H      0.714380000000     0.255760000000     0.013850000000     0.0385023  
H40      H      0.469910000000     0.942880000000     0.889020000000     0.105276   
H41      H      0.531200000000     0.659630000000     0.899300000000     0.105235   
H42      H      0.538400000000     0.388430000000     0.088300000000     0.0434103  
H43      H      0.603370000000     0.419770000000     0.020290000000     0.0387088  
H44      H      0.460720000000     0.569270000000     0.080420000000     0.0374445  
H45      H      0.523740000000     0.510660000000     0.129050000000     0.0419084  
H46      H      0.381150000000     0.533370000000     0.919760000000     0.0431507  
H47      H      0.551920000000     0.448550000000     0.926030000000     0.0375377  
H48      H      0.487690000000     0.505840000000     0.877600000000     0.0421476  
H49      H      0.414110000000     0.603300000000     0.985030000000     0.0383685  
H50      H      0.664650000000     0.542490000000     0.101230000000     0.104924   
H51      H      0.681640000000     0.525950000000     0.423830000000     0.105835   
H52      H      0.567610000000     0.699850000000     0.586810000000     0.0406659  
H53      H      0.499860000000     0.689000000000     0.526760000000     0.0402369  
H54      H      0.505940000000     0.531280000000     0.360990000000     0.0385532  
H55      H      0.485480000000     0.618420000000     0.425400000000     0.0378451  
H56      H      0.550910000000     0.403650000000     0.438990000000     0.0369078  
H57      H      0.581900000000     0.584010000000     0.604300000000     0.0405324  
H58      H      0.601090000000     0.495690000000     0.540250000000     0.0386059  
H59      H      0.534870000000     0.435960000000     0.359080000000     0.0430232  
H60      H      0.431650000000     0.559670000000     0.607620000000     0.105663   
N1       N      0.910830000000     0.496020000000     0.109880000000    -0.234769   
N2       N      0.216210000000     0.650200000000     0.899520000000    -0.235427   
N3       N      0.903150000000     0.477410000000     0.392130000000    -0.234633   
N4       N      0.202500000000     0.622910000000     0.617630000000    -0.234927   
N5       N      0.631170000000     0.207880000000     0.382480000000    -0.234707   
N6       N      0.471810000000     0.894460000000     0.598870000000    -0.235066   
N7       N      0.645870000000     0.219000000000     0.099980000000    -0.234946   
N8       N      0.494300000000     0.911720000000     0.880480000000    -0.235057   
N9       N      0.475320000000     0.632840000000     0.894050000000    -0.234868   
N10      N      0.637840000000     0.485760000000     0.108670000000    -0.234877   
N11      N      0.643820000000     0.486090000000     0.390830000000    -0.235157   
N12      N      0.461460000000     0.616860000000     0.611270000000    -0.235678   
O1       O      0.490420000000     0.700530000000     0.799380000000    -0.494559   
O2       O      0.380930000000     0.812070000000     0.666170000000    -0.499572   
O3       O      0.380890000000     0.626130000000     0.836530000000    -0.499086   
O4       O      0.397680000000     0.608840000000     0.705650000000    -0.497095   
O5       O      0.492470000000     0.818300000000     0.822350000000    -0.500841   
O6       O      0.263400000000     0.703220000000     0.702850000000    -0.493359   
O7       O      0.387060000000     0.721600000000     0.750650000000    -0.717737   
O8       O      0.301980000000     0.738110000000     0.831840000000    -0.500055   
O9       O      0.264940000000     0.622490000000     0.810590000000    -0.497392   
O10      O      0.477660000000     0.717860000000     0.667430000000    -0.499587   
O11      O      0.288330000000     0.617060000000     0.679110000000    -0.501044   
O12      O      0.414900000000     0.852310000000     0.795060000000    -0.493413   
O13      O      0.491680000000     0.841540000000     0.690150000000    -0.495802   
O14      O      0.624610000000     0.413060000000     0.298340000000    -0.492825   
O15      O      0.736730000000     0.304780000000     0.164630000000    -0.500837   
O16      O      0.735070000000     0.492800000000     0.329450000000    -0.503942   
O17      O      0.711090000000     0.502670000000     0.198500000000    -0.491886   
O18      O      0.628730000000     0.298970000000     0.324060000000    -0.501174   
O19      O      0.853270000000     0.417170000000     0.197180000000    -0.492026   
O20      O      0.728860000000     0.395110000000     0.246970000000    -0.718485   
O21      O      0.818030000000     0.385700000000     0.327310000000    -0.500554   
O22      O      0.851770000000     0.499600000000     0.301290000000    -0.492132   
O23      O      0.632230000000     0.390480000000     0.166740000000    -0.501637   
O24      O      0.822240000000     0.497970000000     0.170020000000    -0.501094   
O25      O      0.707310000000     0.267300000000     0.294550000000    -0.492018   
O26      O      0.625480000000     0.270830000000     0.192060000000    -0.493502   


