data_structure

_audit_creation_method RASPA-1.0
_audit_creation_date 2023-6-4
_audit_author_name 'Poobodin Mano'

_cell_length_a    19.5493
_cell_length_b    19.6276
_cell_length_c    21.0642
_cell_angle_alpha 90
_cell_angle_beta  90
_cell_angle_gamma 120.506
_cell_volume      6963.65

_symmetry_cell_setting          triclinic
_symmetry_space_group_name_Hall 'P 1'
_symmetry_space_group_name_H-M  'P 1'
_symmetry_Int_Tables_number     1

_symmetry_equiv_pos_as_xyz 'x,y,z'

loop_
_atom_site_label
_atom_site_type_symbol
_atom_site_fract_x
_atom_site_fract_y
_atom_site_fract_z
_atom_site_charge
C1       C      0.532290000000     0.687330000000     0.614600000000     0.525874   
C2       C      0.524120000000     0.679680000000     0.781790000000     0.525425   
C3       C      0.312990000000     0.687150000000     0.781870000000     0.527022   
C4       C      0.524200000000     0.897600000000     0.613770000000     0.525951   
C5       C      0.533390000000     0.898940000000     0.780910000000     0.527244   
C6       C      0.312170000000     0.677810000000     0.614770000000     0.52787    
C7       C      0.711790000000     0.489080000000     0.114600000000     0.525962   
C8       C      0.719960000000     0.496730000000     0.281790000000     0.52556    
C9       C      0.931090000000     0.489260000000     0.281870000000     0.526998   
C10      C      0.719880000000     0.278810000000     0.113770000000     0.525933   
C11      C      0.710680000000     0.277470000000     0.280910000000     0.527351   
C12      C      0.931910000000     0.498590000000     0.114770000000     0.527727   
C13      C      0.222100000000     0.579810000000     0.855760000000    -0.0166381  
C14      C      0.015410000000     0.601650000000     0.035270000000    -0.0164608  
C15      C      0.021600000000     0.480870000000     0.041360000000    -0.0167838  
C16      C      0.074760000000     0.533710000000     0.990740000000     0.0125375  
C17      C      0.073560000000     0.603670000000     0.989010000000     0.0123843  
C18      C      0.123010000000     0.665380000000     0.947900000000    -0.0652603  
C19      C      0.230500000000     0.707930000000     0.860770000000    -0.0163127  
C20      C      0.121660000000     0.519540000000     0.948590000000    -0.0653027  
C21      C      0.171750000000     0.652160000000     0.907160000000     0.0123585  
C22      C      0.169260000000     0.580340000000     0.906070000000     0.0125226  
C23      C      0.013580000000     0.468480000000     0.360770000000    -0.0165071  
C24      C      0.222480000000     0.695540000000     0.541360000000    -0.0165956  
C25      C      0.228670000000     0.574760000000     0.535270000000    -0.0163054  
C26      C      0.170520000000     0.572740000000     0.489010000000     0.0123811  
C27      C      0.169310000000     0.642700000000     0.490740000000     0.0125098  
C28      C      0.122420000000     0.656870000000     0.448590000000    -0.0652931  
C29      C      0.021980000000     0.596600000000     0.355760000000    -0.0167847  
C30      C      0.121070000000     0.511020000000     0.447900000000    -0.0652922  
C31      C      0.074810000000     0.596070000000     0.406070000000     0.0125297  
C32      C      0.072320000000     0.524250000000     0.407160000000     0.0123962  
C33      C      0.502710000000     0.979540000000     0.535110000000    -0.0163379  
C34      C      0.729360000000     0.188530000000     0.354150000000    -0.0166774  
C35      C      0.607650000000     0.193830000000     0.360620000000    -0.0164151  
C36      C      0.606220000000     0.136100000000     0.406830000000     0.0123982  
C37      C      0.676700000000     0.135390000000     0.404870000000     0.0124697  
C38      C      0.691440000000     0.088900000000     0.446890000000    -0.0652313  
C39      C      0.631670000000     0.988630000000     0.539720000000    -0.0166563  
C40      C      0.544540000000     0.086580000000     0.448060000000    -0.0652489  
C41      C      0.630670000000     0.041200000000     0.489530000000     0.0124693  
C42      C      0.558350000000     0.038270000000     0.488680000000     0.0123256  
C43      C      0.636420000000     0.982580000000     0.860620000000    -0.0163309  
C44      C      0.612400000000     0.187780000000     0.039720000000    -0.0167369  
C45      C      0.741370000000     0.196870000000     0.035110000000    -0.0163868  
C46      C      0.685730000000     0.138140000000     0.988680000000     0.0123476  
C47      C      0.613410000000     0.135220000000     0.989530000000     0.0124879  
C48      C      0.552640000000     0.087520000000     0.946890000000    -0.0652027  
C49      C      0.514730000000     0.987890000000     0.854150000000    -0.0165838  
C50      C      0.699540000000     0.089830000000     0.948060000000    -0.0652453  
C51      C      0.567380000000     0.041030000000     0.904870000000     0.0124229  
C52      C      0.637870000000     0.040310000000     0.906820000000     0.0123714  
C53      C      0.502860000000     0.576240000000     0.860730000000    -0.0165685  
C54      C      0.730480000000     0.596900000000     0.041130000000    -0.0167926  
C55      C      0.608540000000     0.468700000000     0.035210000000    -0.016501   
C56      C      0.606950000000     0.524830000000     0.988940000000     0.0123738  
C57      C      0.677530000000     0.596730000000     0.990570000000     0.0124209  
C58      C      0.692100000000     0.657950000000     0.948370000000    -0.0651706  
C59      C      0.631880000000     0.697420000000     0.855580000000    -0.0167666  
C60      C      0.545060000000     0.511880000000     0.947880000000    -0.0652482  
C61      C      0.631080000000     0.644080000000     0.905920000000     0.012421   
C62      C      0.558710000000     0.573950000000     0.907080000000     0.0123955  
C63      C      0.513600000000     0.579510000000     0.541140000000    -0.0167834  
C64      C      0.741220000000     0.600170000000     0.360730000000    -0.0165661  
C65      C      0.612200000000     0.478980000000     0.355580000000    -0.0167866  
C66      C      0.613000000000     0.532330000000     0.405920000000     0.0124115  
C67      C      0.685370000000     0.602450000000     0.407090000000     0.012406   
C68      C      0.699020000000     0.664530000000     0.447890000000    -0.0652757  
C69      C      0.635540000000     0.707710000000     0.535210000000    -0.0165518  
C70      C      0.551980000000     0.518460000000     0.448370000000    -0.0651487  
C71      C      0.637130000000     0.651580000000     0.488940000000     0.0124185  
C72      C      0.566550000000     0.579680000000     0.490570000000     0.0123948  
Fe1      Fe     0.403010000000     0.648730000000     0.698210000000     1.2866     
Fe2      Fe     0.403680000000     0.807180000000     0.697850000000     1.29048    
Fe3      Fe     0.563090000000     0.808330000000     0.697800000000     1.28364    
Fe4      Fe     0.841070000000     0.527690000000     0.198210000000     1.28644    
Fe5      Fe     0.840400000000     0.369230000000     0.197850000000     1.29048    
Fe6      Fe     0.680980000000     0.368080000000     0.197800000000     1.28356    
H1       H      0.056570000000     0.471760000000     0.078490000000     0.042699   
H2       H      0.045280000000     0.650960000000     0.069880000000     0.0389672  
H3       H      0.123560000000     0.720810000000     0.947650000000     0.042825   
H4       H      0.121160000000     0.464140000000     0.948870000000     0.0429736  
H5       H      0.267930000000     0.568910000000     0.876580000000     0.0418043  
H6       H      0.201330000000     0.727420000000     0.825790000000     0.0389779  
H7       H      0.975090000000     0.423690000000     0.020920000000     0.0420061  
H8       H      0.966310000000     0.603420000000     0.010180000000     0.0440904  
H9       H      0.279990000000     0.759180000000     0.885700000000     0.0440286  
H10      H      0.186730000000     0.535240000000     0.818800000000     0.0426139  
H11      H      0.277770000000     0.572990000000     0.510180000000     0.0440003  
H12      H      0.268990000000     0.752730000000     0.520920000000     0.0419054  
H13      H      0.122920000000     0.712270000000     0.448870000000     0.0429751  
H14      H      0.120520000000     0.455600000000     0.447650000000     0.042841   
H15      H      0.042750000000     0.449000000000     0.325800000000     0.0390102  
H16      H      0.976140000000     0.607500000000     0.376580000000     0.041886   
H17      H      0.198800000000     0.525450000000     0.569880000000     0.0389449  
H18      H      0.187510000000     0.704650000000     0.578490000000     0.0426693  
H19      H      0.057350000000     0.641170000000     0.318800000000     0.0426322  
H20      H      0.964090000000     0.417230000000     0.385700000000     0.0441225  
H21      H      0.605610000000     0.242550000000     0.385780000000     0.0440143  
H22      H      0.786720000000     0.235100000000     0.374470000000     0.0420044  
H23      H      0.747240000000     0.089760000000     0.446400000000     0.042989   
H24      H      0.488700000000     0.085640000000     0.448490000000     0.0428373  
H25      H      0.483030000000     0.008350000000     0.570220000000     0.0390012  
H26      H      0.642880000000     0.943230000000     0.518750000000     0.0417952  
H27      H      0.558040000000     0.163820000000     0.326130000000     0.0389741  
H28      H      0.738650000000     0.153880000000     0.316940000000     0.0427013  
H29      H      0.676450000000     0.023950000000     0.576640000000     0.0425622  
H30      H      0.451300000000     0.930130000000     0.510220000000     0.0440611  
H31      H      0.792780000000     0.246280000000     0.010220000000     0.0440777  
H32      H      0.601200000000     0.233190000000     0.018750000000     0.0418057  
H33      H      0.496830000000     0.086660000000     0.946400000000     0.042959   
H34      H      0.755380000000     0.090770000000     0.948490000000     0.0428462  
H35      H      0.686040000000     0.012590000000     0.826130000000     0.0389479  
H36      H      0.457360000000     0.941320000000     0.874470000000     0.0419751  
H37      H      0.761050000000     0.168060000000     0.070220000000     0.039034   
H38      H      0.567630000000     0.152460000000     0.076640000000     0.042589   
H39      H      0.505420000000     0.022540000000     0.816940000000     0.0426511  
H40      H      0.638470000000     0.933870000000     0.885780000000     0.0440053  
H41      H      0.606140000000     0.417710000000     0.010120000000     0.044065   
H42      H      0.787660000000     0.608110000000     0.020590000000     0.0420098  
H43      H      0.747960000000     0.713460000000     0.948580000000     0.0429977  
H44      H      0.489180000000     0.456380000000     0.947700000000     0.0428397  
H45      H      0.482960000000     0.527340000000     0.825780000000     0.039075   
H46      H      0.643260000000     0.754300000000     0.876400000000     0.041904   
H47      H      0.559160000000     0.448830000000     0.069900000000     0.0390314  
H48      H      0.740140000000     0.641140000000     0.078270000000     0.0426571  
H49      H      0.676460000000     0.707150000000     0.818550000000     0.042599   
H50      H      0.451610000000     0.573870000000     0.885710000000     0.0441072  
H51      H      0.567620000000     0.469270000000     0.318560000000     0.0425922  
H52      H      0.761120000000     0.649070000000     0.325780000000     0.039083   
H53      H      0.754900000000     0.720020000000     0.447710000000     0.0428678  
H54      H      0.496110000000     0.462950000000     0.448580000000     0.0429746  
H55      H      0.456420000000     0.568300000000     0.520590000000     0.0419917  
H56      H      0.684910000000     0.727580000000     0.569900000000     0.0390605  
H57      H      0.600820000000     0.422110000000     0.376390000000     0.0419065  
H58      H      0.792470000000     0.602540000000     0.385710000000     0.0441159  
H59      H      0.637930000000     0.758690000000     0.510120000000     0.0440854  
H60      H      0.503940000000     0.535270000000     0.578270000000     0.0426477  
N1       N      0.258890000000     0.660050000000     0.829650000000    -0.188843   
N2       N      0.986010000000     0.525270000000     0.067000000000    -0.188892   
N3       N      0.985190000000     0.516360000000     0.329650000000    -0.188742   
N4       N      0.258070000000     0.651140000000     0.567000000000    -0.189017   
N5       N      0.551160000000     0.951550000000     0.566000000000    -0.188539   
N6       N      0.684280000000     0.223540000000     0.328670000000    -0.188821   
N7       N      0.559800000000     0.952870000000     0.828670000000    -0.188819   
N8       N      0.692920000000     0.224860000000     0.066000000000    -0.188524   
N9       N      0.551220000000     0.653050000000     0.829530000000    -0.188339   
N10      N      0.685410000000     0.516410000000     0.066850000000    -0.188427   
N11      N      0.558670000000     0.660000000000     0.566850000000    -0.18841    
N12      N      0.692860000000     0.523360000000     0.329530000000    -0.18836    
O1       O      0.573030000000     0.738450000000     0.749080000000    -0.495223   
O2       O      0.451080000000     0.859710000000     0.625880000000    -0.504977   
O3       O      0.450930000000     0.643770000000     0.769830000000    -0.503727   
O4       O      0.473390000000     0.638770000000     0.647430000000    -0.496639   
O5       O      0.568980000000     0.861960000000     0.769250000000    -0.50307    
O6       O      0.322280000000     0.736010000000     0.647710000000    -0.498619   
O7       O      0.456640000000     0.754740000000     0.697950000000    -0.70541    
O8       O      0.350930000000     0.759990000000     0.769830000000    -0.505243   
O9       O      0.322400000000     0.638530000000     0.749100000000    -0.49657    
O10      O      0.568360000000     0.760280000000     0.626380000000    -0.50289    
O11      O      0.349580000000     0.642710000000     0.626530000000    -0.504116   
O12      O      0.474840000000     0.888460000000     0.747940000000    -0.498637   
O13      O      0.573160000000     0.888300000000     0.646450000000    -0.495092   
O14      O      0.671050000000     0.437960000000     0.249080000000    -0.495301   
O15      O      0.793000000000     0.316700000000     0.125880000000    -0.504963   
O16      O      0.793140000000     0.532640000000     0.269830000000    -0.50379    
O17      O      0.770690000000     0.537640000000     0.147420000000    -0.496672   
O18      O      0.675100000000     0.314440000000     0.269250000000    -0.503158   
O19      O      0.921800000000     0.440390000000     0.147710000000    -0.498575   
O20      O      0.787440000000     0.421670000000     0.197950000000    -0.70525    
O21      O      0.893150000000     0.416420000000     0.269830000000    -0.505219   
O22      O      0.921680000000     0.537880000000     0.249100000000    -0.496506   
O23      O      0.675720000000     0.416130000000     0.126380000000    -0.502935   
O24      O      0.894500000000     0.533700000000     0.126530000000    -0.503965   
O25      O      0.769240000000     0.287950000000     0.247940000000    -0.49861    
O26      O      0.670920000000     0.288110000000     0.146450000000    -0.49506    


