data_structure

_audit_creation_method RASPA-1.0
_audit_creation_date 2023-6-4
_audit_author_name 'Poobodin Mano'

_cell_length_a    20.1838
_cell_length_b    19.9755
_cell_length_c    20.9395
_cell_angle_alpha 90
_cell_angle_beta  90
_cell_angle_gamma 120.5
_cell_volume      7274.23

_symmetry_cell_setting          triclinic
_symmetry_space_group_name_Hall 'P 1'
_symmetry_space_group_name_H-M  'P 1'
_symmetry_Int_Tables_number     1

_symmetry_equiv_pos_as_xyz 'x,y,z'

loop_
_atom_site_label
_atom_site_type_symbol
_atom_site_fract_x
_atom_site_fract_y
_atom_site_fract_z
_atom_site_charge
C1       C      0.526180000000     0.701810000000     0.624550000000     0.518307   
C2       C      0.520320000000     0.697680000000     0.796350000000     0.51664    
C3       C      0.318200000000     0.684360000000     0.800440000000     0.515467   
C4       C      0.492270000000     0.884330000000     0.620330000000     0.519175   
C5       C      0.511290000000     0.891430000000     0.793540000000     0.525341   
C6       C      0.311640000000     0.669420000000     0.628950000000     0.510725   
C7       C      0.723530000000     0.495800000000     0.119650000000     0.515522   
C8       C      0.731080000000     0.509410000000     0.291240000000     0.51094    
C9       C      0.913650000000     0.478160000000     0.295790000000     0.517949   
C10      C      0.709800000000     0.289390000000     0.125510000000     0.525456   
C11      C      0.696880000000     0.294870000000     0.298860000000     0.519333   
C12      C      0.912720000000     0.483280000000     0.123920000000     0.51705    
C13      C      0.180030000000     0.544630000000     0.922030000000     0.00883963 
C14      C      0.084020000000     0.436660000000     0.985250000000    -0.043309   
C15      C      0.987460000000     0.447220000000     0.053780000000    -0.016796   
C16      C      0.052120000000     0.481240000000     0.005390000000     0.00857045 
C17      C      0.971190000000     0.563250000000     0.028610000000    -0.0167472  
C18      C      0.048980000000     0.601470000000     0.997650000000     0.00974481 
C19      C      0.146190000000     0.467460000000     0.943030000000    -0.043353   
C20      C      0.083610000000     0.557750000000     0.982650000000    -0.00507979 
C21      C      0.084500000000     0.679640000000     0.979120000000    -0.0428921  
C22      C      0.154290000000     0.714310000000     0.946440000000    -0.0430585  
C23      C      0.265100000000     0.709140000000     0.897030000000    -0.0171734  
C24      C      0.187560000000     0.670280000000     0.928460000000     0.010027   
C25      C      0.244410000000     0.574420000000     0.873470000000    -0.0177847  
C26      C      0.150740000000     0.591050000000     0.944140000000    -0.00529135 
C27      C      0.216120000000     0.605010000000     0.472200000000     0.0115305  
C28      C      0.183340000000     0.606000000000     0.360660000000    -0.0428844  
C29      C      0.047030000000     0.563770000000     0.327960000000    -0.0181048  
C30      C      0.105040000000     0.570170000000     0.376590000000     0.00982977 
C31      C      0.946160000000     0.460160000000     0.404150000000    -0.0166528  
C32      C      0.004350000000     0.503600000000     0.455830000000     0.00940602 
C33      C      0.238100000000     0.620060000000     0.407790000000    -0.0430041  
C34      C      0.082400000000     0.548970000000     0.440080000000    -0.0055532  
C35      C      0.982410000000     0.491860000000     0.520330000000    -0.0425436  
C36      C      0.037930000000     0.526070000000     0.568330000000    -0.04374    
C37      C      0.175610000000     0.611380000000     0.603590000000    -0.0187303  
C38      C      0.116440000000     0.566950000000     0.552710000000     0.0102443  
C39      C      0.272280000000     0.611680000000     0.522740000000    -0.0178691  
C40      C      0.138590000000     0.573650000000     0.488530000000    -0.00636181 
C41      C      0.621900000000     0.022150000000     0.497410000000     0.0105161  
C42      C      0.732440000000     0.124120000000     0.441700000000    -0.0426018  
C43      C      0.728640000000     0.230270000000     0.382240000000    -0.01611    
C44      C      0.689710000000     0.158180000000     0.422680000000     0.00999498 
C45      C      0.606560000000     0.236980000000     0.389710000000    -0.0162214  
C46      C      0.569350000000     0.159670000000     0.424490000000     0.00998323 
C47      C      0.698990000000     0.057020000000     0.478620000000    -0.0428761  
C48      C      0.612300000000     0.124580000000     0.441530000000    -0.00436931 
C49      C      0.491630000000     0.123550000000     0.442220000000    -0.0423422  
C50      C      0.456680000000     0.053380000000     0.475940000000    -0.0424696  
C51      C      0.459160000000     0.941220000000     0.529350000000    -0.0164354  
C52      C      0.498960000000     0.018400000000     0.494330000000     0.0101176  
C53      C      0.588400000000     0.948960000000     0.536450000000    -0.0167517  
C54      C      0.577410000000     0.054590000000     0.477900000000    -0.00467088 
C55      C      0.629150000000     0.023630000000     0.921880000000     0.0105999  
C56      C      0.740400000000     0.126850000000     0.975910000000    -0.0425712  
C57      C      0.735990000000     0.236870000000     0.029310000000    -0.0161802  
C58      C      0.697200000000     0.160390000000     0.995110000000     0.0103038  
C59      C      0.603560000000     0.219360000000     0.049860000000    -0.016249   
C60      C      0.573420000000     0.154390000000     0.001540000000     0.00928746 
C61      C      0.706090000000     0.057910000000     0.941150000000    -0.0428066  
C62      C      0.619010000000     0.124640000000     0.978770000000    -0.00466065 
C63      C      0.497030000000     0.121030000000     0.980910000000    -0.0430647  
C64      C      0.466040000000     0.058810000000     0.938280000000    -0.0429138  
C65      C      0.475360000000     0.962030000000     0.868470000000    -0.0162015  
C66      C      0.509890000000     0.026830000000     0.916960000000     0.00913547 
C67      C      0.591390000000     0.946380000000     0.888900000000    -0.016542   
C68      C      0.585820000000     0.057980000000     0.939030000000    -0.00471178 
C69      C      0.661720000000     0.699570000000     0.914980000000     0.00884183 
C70      C      0.769260000000     0.713530000000     0.978050000000    -0.0431716  
C71      C      0.760060000000     0.606030000000     0.046960000000    -0.0170307  
C72      C      0.725770000000     0.636110000000     0.998500000000     0.00852216 
C73      C      0.645810000000     0.471330000000     0.022910000000    -0.0169072  
C74      C      0.607430000000     0.510200000000     0.991260000000     0.00977957 
C75      C      0.738150000000     0.744360000000     0.935720000000    -0.0433744  
C76      C      0.650090000000     0.589550000000     0.975910000000    -0.00501636 
C77      C      0.530080000000     0.466070000000     0.972850000000    -0.0429164  
C78      C      0.495140000000     0.500760000000     0.940160000000    -0.0430391  
C79      C      0.498680000000     0.617500000000     0.891450000000    -0.0170871  
C80      C      0.538060000000     0.579080000000     0.922030000000     0.0100276  
C81      C      0.631670000000     0.733470000000     0.866030000000    -0.0177534  
C82      C      0.616490000000     0.622880000000     0.937340000000    -0.00533999 
C83      C      0.638540000000     0.610730000000     0.368330000000     0.0103502  
C84      C      0.580360000000     0.686340000000     0.400360000000    -0.0427937  
C85      C      0.577270000000     0.719560000000     0.516380000000    -0.0167376  
C86      C      0.591230000000     0.675490000000     0.464910000000     0.00966938 
C87      C      0.574330000000     0.616610000000     0.593210000000    -0.0180561  
C88      C      0.625330000000     0.609450000000     0.544460000000     0.00979779 
C89      C      0.600720000000     0.651200000000     0.352550000000    -0.0435721  
C90      C      0.623640000000     0.630140000000     0.480860000000    -0.00561205 
C91      C      0.667220000000     0.573160000000     0.560410000000    -0.0429556  
C92      C      0.707280000000     0.558360000000     0.513250000000    -0.0428869  
C93      C      0.748810000000     0.565160000000     0.398110000000    -0.0178253  
C94      C      0.700570000000     0.573550000000     0.448850000000     0.0112101  
C95      C      0.650130000000     0.563310000000     0.318370000000    -0.0188529  
C96      C      0.654410000000     0.604720000000     0.432480000000    -0.00639484 
Fe1      Fe     0.407050000000     0.659610000000     0.711630000000     1.34335    
Fe2      Fe     0.390970000000     0.795310000000     0.711990000000     1.34605    
Fe3      Fe     0.541930000000     0.811570000000     0.706330000000     1.35585    
Fe4      Fe     0.837020000000     0.520460000000     0.208670000000     1.34305    
Fe5      Fe     0.819960000000     0.368780000000     0.213400000000     1.35651    
Fe6      Fe     0.684900000000     0.384260000000     0.207590000000     1.34586    
H1       H      0.927230000000     0.537810000000     0.990180000000     0.0415401  
H2       H      0.223720000000     0.535450000000     0.831090000000     0.0444702  
H3       H      0.006850000000     0.428900000000     0.096640000000     0.0440191  
H4       H      0.309220000000     0.727370000000     0.935210000000     0.0414857  
H5       H      0.168310000000     0.431020000000     0.926850000000     0.0353953  
H6       H      0.060300000000     0.377520000000     0.002010000000     0.0354182  
H7       H      0.938570000000     0.392900000000     0.033920000000     0.0389607  
H8       H      0.293050000000     0.570450000000     0.894180000000     0.0391806  
H9       H      0.058410000000     0.714070000000     0.990370000000     0.0355673  
H10      H      0.962680000000     0.607720000000     0.053260000000     0.0433299  
H11      H      0.182060000000     0.775490000000     0.934640000000     0.0355892  
H12      H      0.275580000000     0.762940000000     0.872210000000     0.0429472  
H13      H      0.888140000000     0.448270000000     0.418900000000     0.0412533  
H14      H      0.332200000000     0.654820000000     0.508100000000     0.0438153  
H15      H      0.064310000000     0.556210000000     0.279200000000     0.0414578  
H16      H      0.159660000000     0.577210000000     0.648710000000     0.0403475  
H17      H      0.297690000000     0.643920000000     0.394170000000     0.0377669  
H18      H      0.201940000000     0.622440000000     0.311730000000     0.0378123  
H19      H      0.048030000000     0.619920000000     0.327040000000     0.0444191  
H20      H      0.268700000000     0.554520000000     0.527460000000     0.0433685  
H21      H      0.922330000000     0.457040000000     0.533450000000     0.0368585  
H22      H      0.941120000000     0.402430000000     0.398320000000     0.0417266  
H23      H      0.019740000000     0.520060000000     0.617700000000     0.0376931  
H24      H      0.173620000000     0.664730000000     0.614890000000     0.0459352  
H25      H      0.624860000000     0.283690000000     0.426030000000     0.0416055  
H26      H      0.631250000000     0.955390000000     0.573040000000     0.0462397  
H27      H      0.765010000000     0.223590000000     0.345800000000     0.0458237  
H28      H      0.430700000000     0.894300000000     0.493200000000     0.041649   
H29      H      0.733470000000     0.031940000000     0.492550000000     0.0363715  
H30      H      0.792180000000     0.149720000000     0.427790000000     0.0362664  
H31      H      0.769250000000     0.279260000000     0.413230000000     0.0386947  
H32      H      0.579350000000     0.900630000000     0.504410000000     0.0387953  
H33      H      0.457710000000     0.149710000000     0.429720000000     0.0371238  
H34      H      0.563840000000     0.240420000000     0.358350000000     0.0416221  
H35      H      0.396270000000     0.026360000000     0.487980000000     0.0371723  
H36      H      0.412930000000     0.937550000000     0.560760000000     0.0417727  
H37      H      0.562940000000     0.200650000000     0.090880000000     0.0448227  
H38      H      0.566960000000     0.900070000000     0.925890000000     0.0418203  
H39      H      0.757170000000     0.283630000000     0.992760000000     0.0415711  
H40      H      0.453790000000     0.980830000000     0.827320000000     0.0448008  
H41      H      0.739890000000     0.031560000000     0.928790000000     0.0358407  
H42      H      0.800700000000     0.153760000000     0.988330000000     0.0357685  
H43      H      0.787370000000     0.244340000000     0.055420000000     0.044099   
H44      H      0.635460000000     0.940090000000     0.861910000000     0.0441981  
H45      H      0.461380000000     0.143600000000     0.997690000000     0.0354588  
H46      H      0.602640000000     0.269720000000     0.028220000000     0.0394353  
H47      H      0.407370000000     0.035200000000     0.921980000000     0.0354143  
H48      H      0.423690000000     0.911460000000     0.889750000000     0.0395083  
H49      H      0.671830000000     0.453170000000     0.984870000000     0.041361   
H50      H      0.668810000000     0.749840000000     0.822840000000     0.044474   
H51      H      0.779350000000     0.645230000000     0.089210000000     0.0441004  
H52      H      0.480450000000     0.642840000000     0.930100000000     0.0416706  
H53      H      0.773770000000     0.803640000000     0.919250000000     0.0354891  
H54      H      0.827790000000     0.750100000000     0.994630000000     0.0353655  
H55      H      0.813160000000     0.610840000000     0.026510000000     0.0387946  
H56      H      0.637310000000     0.787950000000     0.885480000000     0.0395196  
H57      H      0.496450000000     0.404800000000     0.984370000000     0.0355333  
H58      H      0.602120000000     0.417460000000     0.047590000000     0.0428316  
H59      H      0.434530000000     0.466260000000     0.928660000000     0.03561    
H60      H      0.445390000000     0.573160000000     0.866850000000     0.043352   
H61      H      0.599940000000     0.625200000000     0.641760000000     0.0413071  
H62      H      0.665570000000     0.594860000000     0.271950000000     0.0412287  
H63      H      0.531530000000     0.731920000000     0.501540000000     0.0414011  
H64      H      0.765360000000     0.522030000000     0.412830000000     0.0434826  
H65      H      0.587560000000     0.656080000000     0.303220000000     0.0377634  
H66      H      0.555090000000     0.720940000000     0.387080000000     0.0369481  
H67      H      0.630570000000     0.777040000000     0.522090000000     0.0416847  
H68      H      0.594540000000     0.508440000000     0.310870000000     0.0456641  
H69      H      0.669340000000     0.556870000000     0.609380000000     0.037788   
H70      H      0.519060000000     0.560360000000     0.595050000000     0.0444789  
H71      H      0.742470000000     0.534000000000     0.526850000000     0.0377155  
H72      H      0.803140000000     0.621880000000     0.393260000000     0.0437418  
N1       N      0.273130000000     0.655570000000     0.853710000000    -0.185006   
N2       N      0.959930000000     0.500310000000     0.072110000000    -0.18518    
N3       N      0.254680000000     0.633380000000     0.584950000000    -0.185506   
N4       N      0.968010000000     0.500890000000     0.342240000000    -0.187593   
N5       N      0.514100000000     0.928450000000     0.565920000000    -0.18456    
N6       N      0.674570000000     0.250510000000     0.353130000000    -0.18466    
N7       N      0.528900000000     0.936990000000     0.846670000000    -0.186569   
N8       N      0.682260000000     0.244730000000     0.071850000000    -0.186565   
N9       N      0.550590000000     0.680610000000     0.848040000000    -0.185038   
N10      N      0.707400000000     0.524770000000     0.066480000000    -0.185033   
N11      N      0.709660000000     0.544370000000     0.335730000000    -0.185566   
N12      N      0.557980000000     0.679040000000     0.578390000000    -0.187748   
O1       O      0.563400000000     0.747420000000     0.755150000000    -0.490944   
O2       O      0.422420000000     0.838280000000     0.632970000000    -0.497473   
O3       O      0.448830000000     0.662700000000     0.788300000000    -0.505094   
O4       O      0.483160000000     0.654670000000     0.666680000000    -0.497497   
O5       O      0.545790000000     0.855240000000     0.782470000000    -0.509579   
O6       O      0.308880000000     0.714670000000     0.669720000000    -0.492199   
O7       O      0.446860000000     0.755900000000     0.710250000000    -0.871495   
O8       O      0.356090000000     0.756280000000     0.790580000000    -0.503861   
O9       O      0.321930000000     0.639460000000     0.759700000000    -0.490529   
O10      O      0.544230000000     0.771580000000     0.629020000000    -0.504287   
O11      O      0.362800000000     0.651490000000     0.634150000000    -0.496081   
O12      O      0.459240000000     0.883850000000     0.755500000000    -0.497493   
O13      O      0.542930000000     0.888760000000     0.658390000000    -0.499401   
O14      O      0.683150000000     0.464290000000     0.250240000000    -0.4925     
O15      O      0.780580000000     0.325660000000     0.136980000000    -0.509653   
O16      O      0.800400000000     0.527850000000     0.286130000000    -0.496094   
O17      O      0.772100000000     0.540560000000     0.160600000000    -0.490424   
O18      O      0.672980000000     0.340710000000     0.286410000000    -0.497416   
O19      O      0.906020000000     0.433580000000     0.165060000000    -0.491478   
O20      O      0.780430000000     0.424110000000     0.209620000000    -0.871479   
O21      O      0.861860000000     0.408330000000     0.290960000000    -0.504251   
O22      O      0.918040000000     0.525480000000     0.253800000000    -0.497036   
O23      O      0.689390000000     0.423820000000     0.129190000000    -0.503839   
O24      O      0.876190000000     0.518070000000     0.132040000000    -0.505062   
O25      O      0.743370000000     0.290970000000     0.260790000000    -0.499825   
O26      O      0.664960000000     0.296240000000     0.163580000000    -0.497427   


