data_structure

_audit_creation_method RASPA-1.0
_audit_creation_date 2023-6-4
_audit_author_name 'Poobodin Mano'

_cell_length_a    14.9156
_cell_length_b    27.6611
_cell_length_c    24.9254
_cell_angle_alpha 90
_cell_angle_beta  90
_cell_angle_gamma 120.563
_cell_volume      8855.05

_symmetry_cell_setting          triclinic
_symmetry_space_group_name_Hall 'P 1'
_symmetry_space_group_name_H-M  'P 1'
_symmetry_Int_Tables_number     1

_symmetry_equiv_pos_as_xyz 'x,y,z'

loop_
_atom_site_label
_atom_site_type_symbol
_atom_site_fract_x
_atom_site_fract_y
_atom_site_fract_z
_atom_site_charge
C1       C      0.746520000000     0.462450000000     0.476000000000     0.536137   
C2       C      0.728660000000     0.525590000000     0.598950000000     0.53652    
C3       C      0.446780000000     0.501270000000     0.554740000000     0.537863   
C4       C      0.703280000000     0.568100000000     0.387560000000     0.535198   
C5       C      0.706870000000     0.638920000000     0.509040000000     0.529645   
C6       C      0.456500000000     0.421330000000     0.442050000000     0.536478   
C7       C      0.886850000000     0.436480000000     0.210520000000     0.537779   
C8       C      0.823210000000     0.362750000000     0.338530000000     0.532891   
C9       C      0.105380000000     0.379320000000     0.345700000000     0.536962   
C10      C      0.953050000000     0.324420000000     0.147720000000     0.539225   
C11      C      0.860990000000     0.245830000000     0.270020000000     0.536378   
C12      C      0.172580000000     0.459830000000     0.225010000000     0.531438   
C13      C      0.349780000000     0.493820000000     0.189560000000    -0.00327029 
C14      C      0.336610000000     0.462460000000     0.636400000000    -0.00256605 
C15      C      0.206020000000     0.347470000000     0.399120000000    -0.00331119 
C16      C      0.315390000000     0.378090000000     0.373610000000    -0.00222656 
C17      C      0.845400000000     0.618700000000     0.321360000000    -0.00500951 
C18      C      0.853730000000     0.153960000000     0.272290000000    -0.00292039 
C19      C      0.857720000000     0.285900000000     0.061900000000    -0.00292352 
C20      C      0.816710000000     0.722740000000     0.564200000000    -0.00516447 
C21      C      0.900710000000     0.528770000000     0.202010000000    -0.00165533 
C22      C      0.880060000000     0.562810000000     0.660700000000    -0.0063784  
C23      C      0.749540000000     0.374000000000     0.473360000000    -0.000352807
C24      C      0.791230000000     0.345640000000     0.436560000000    -0.00650512 
C25      C      0.746520000000     0.462450000000     0.976000000000     0.536077   
C26      C      0.728660000000     0.525590000000     0.098950000000     0.53663    
C27      C      0.446780000000     0.501270000000     0.054740000000     0.53801    
C28      C      0.703280000000     0.568100000000     0.887560000000     0.535103   
C29      C      0.706870000000     0.638920000000     0.009030000000     0.529708   
C30      C      0.456500000000     0.421330000000     0.942050000000     0.53648    
C31      C      0.886850000000     0.436480000000     0.710520000000     0.537735   
C32      C      0.823210000000     0.362750000000     0.838530000000     0.532898   
C33      C      0.105380000000     0.379320000000     0.845700000000     0.536963   
C34      C      0.953050000000     0.324420000000     0.647720000000     0.539227   
C35      C      0.860990000000     0.245830000000     0.770020000000     0.536383   
C36      C      0.172580000000     0.459830000000     0.725010000000     0.53144    
C37      C      0.349780000000     0.493820000000     0.689560000000    -0.00327713 
C38      C      0.336610000000     0.462460000000     0.136400000000    -0.00259161 
C39      C      0.206020000000     0.347470000000     0.899120000000    -0.00331087 
C40      C      0.315390000000     0.378090000000     0.873610000000    -0.00222819 
C41      C      0.845400000000     0.618700000000     0.821360000000    -0.00501523 
C42      C      0.853730000000     0.153960000000     0.772290000000    -0.00290358 
C43      C      0.857720000000     0.285900000000     0.561900000000    -0.00292059 
C44      C      0.816710000000     0.722740000000     0.064200000000    -0.00515822 
C45      C      0.900710000000     0.528770000000     0.702010000000    -0.00165836 
C46      C      0.880060000000     0.562810000000     0.160700000000    -0.00637337 
C47      C      0.749540000000     0.374000000000     0.973360000000    -0.000407652
C48      C      0.791230000000     0.345640000000     0.936560000000    -0.00648762 
C49      C      0.746530000000     0.962450000000     0.476000000000     0.536018   
C50      C      0.728660000000     0.025590000000     0.598950000000     0.536493   
C51      C      0.446780000000     0.001270000000     0.554740000000     0.538034   
C52      C      0.703280000000     0.068100000000     0.387560000000     0.535143   
C53      C      0.706860000000     0.138910000000     0.509040000000     0.529793   
C54      C      0.456500000000     0.921330000000     0.442050000000     0.536582   
C55      C      0.886850000000     0.936480000000     0.210520000000     0.537752   
C56      C      0.823200000000     0.862750000000     0.338530000000     0.532868   
C57      C      0.105380000000     0.879320000000     0.345700000000     0.536958   
C58      C      0.953050000000     0.824420000000     0.147720000000     0.539227   
C59      C      0.860990000000     0.745830000000     0.270020000000     0.536218   
C60      C      0.172580000000     0.959830000000     0.225010000000     0.531384   
C61      C      0.349780000000     0.993820000000     0.189560000000    -0.00324244 
C62      C      0.336610000000     0.962460000000     0.636400000000    -0.00256078 
C63      C      0.206020000000     0.847470000000     0.399120000000    -0.00332152 
C64      C      0.315390000000     0.878090000000     0.373610000000    -0.00219385 
C65      C      0.845400000000     0.118700000000     0.321360000000    -0.00502496 
C66      C      0.853730000000     0.653960000000     0.272290000000    -0.00293101 
C67      C      0.857720000000     0.785900000000     0.061900000000    -0.00292393 
C68      C      0.816710000000     0.222740000000     0.564200000000    -0.00516836 
C69      C      0.900710000000     0.028770000000     0.202010000000    -0.00164625 
C70      C      0.880070000000     0.062810000000     0.660700000000    -0.00642635 
C71      C      0.749540000000     0.874000000000     0.473360000000    -0.000328336
C72      C      0.791220000000     0.845640000000     0.436560000000    -0.00648355 
C73      C      0.746530000000     0.962450000000     0.976000000000     0.535959   
C74      C      0.728660000000     0.025590000000     0.098950000000     0.536603   
C75      C      0.446780000000     0.001270000000     0.054740000000     0.538182   
C76      C      0.703280000000     0.068100000000     0.887560000000     0.535047   
C77      C      0.706860000000     0.138910000000     0.009030000000     0.529855   
C78      C      0.456500000000     0.921330000000     0.942050000000     0.536584   
C79      C      0.886850000000     0.936480000000     0.710520000000     0.537708   
C80      C      0.823200000000     0.862750000000     0.838530000000     0.532875   
C81      C      0.105380000000     0.879320000000     0.845700000000     0.536959   
C82      C      0.953050000000     0.824420000000     0.647720000000     0.53923    
C83      C      0.860990000000     0.745830000000     0.770020000000     0.536222   
C84      C      0.172580000000     0.959830000000     0.725010000000     0.531386   
C85      C      0.349780000000     0.993820000000     0.689560000000    -0.00324927 
C86      C      0.336610000000     0.962460000000     0.136400000000    -0.00258635 
C87      C      0.206020000000     0.847470000000     0.899120000000    -0.00332119 
C88      C      0.315390000000     0.878090000000     0.873610000000    -0.00219548 
C89      C      0.845400000000     0.118700000000     0.821360000000    -0.00503068 
C90      C      0.853730000000     0.653960000000     0.772290000000    -0.0029142  
C91      C      0.857720000000     0.785900000000     0.561900000000    -0.002921   
C92      C      0.816710000000     0.222740000000     0.064200000000    -0.00516211 
C93      C      0.900710000000     0.028770000000     0.702010000000    -0.00164929 
C94      C      0.880070000000     0.062810000000     0.160700000000    -0.00642132 
C95      C      0.749540000000     0.874000000000     0.973360000000    -0.000383177
C96      C      0.791220000000     0.845640000000     0.936560000000    -0.00646605 
Fe1      Fe     0.578600000000     0.459670000000     0.529840000000     1.35259    
Fe2      Fe     0.554170000000     0.537480000000     0.461830000000     1.34639    
Fe3      Fe     0.759380000000     0.561180000000     0.492580000000     1.35973    
Fe4      Fe     0.008120000000     0.427760000000     0.290330000000     1.35268    
Fe5      Fe     0.047940000000     0.344570000000     0.244070000000     1.34776    
Fe6      Fe     0.843440000000     0.332360000000     0.234910000000     1.3497     
Fe7      Fe     0.578600000000     0.459670000000     0.029840000000     1.35265    
Fe8      Fe     0.554170000000     0.537480000000     0.961830000000     1.34629    
Fe9      Fe     0.759380000000     0.561180000000     0.992580000000     1.35957    
Fe10     Fe     0.008120000000     0.427760000000     0.790330000000     1.35272    
Fe11     Fe     0.047940000000     0.344570000000     0.744070000000     1.34777    
Fe12     Fe     0.843440000000     0.332360000000     0.734910000000     1.34978    
Fe13     Fe     0.578600000000     0.959670000000     0.529840000000     1.35257    
Fe14     Fe     0.554170000000     0.037480000000     0.461830000000     1.34632    
Fe15     Fe     0.759380000000     0.061180000000     0.492580000000     1.35971    
Fe16     Fe     0.008120000000     0.927760000000     0.290330000000     1.35267    
Fe17     Fe     0.047940000000     0.844570000000     0.244070000000     1.34771    
Fe18     Fe     0.843440000000     0.832360000000     0.234910000000     1.34977    
Fe19     Fe     0.578600000000     0.959670000000     0.029840000000     1.35263    
Fe20     Fe     0.554170000000     0.037480000000     0.961830000000     1.34622    
Fe21     Fe     0.759380000000     0.061180000000     0.992580000000     1.35955    
Fe22     Fe     0.008120000000     0.927760000000     0.790330000000     1.3527     
Fe23     Fe     0.047940000000     0.844570000000     0.744070000000     1.34772    
Fe24     Fe     0.843440000000     0.832360000000     0.734910000000     1.34985    
H1       H      0.264550000000     0.538230000000     0.189800000000     0.102605   
H2       H      0.366470000000     0.535600000000     0.590580000000     0.106007   
H3       H      0.421800000000     0.535860000000     0.188090000000     0.0358405  
H4       H      0.359460000000     0.469820000000     0.222640000000     0.040219   
H5       H      0.252740000000     0.432700000000     0.628380000000     0.0482107  
H6       H      0.375180000000     0.437200000000     0.640210000000     0.0415513  
H7       H      0.181130000000     0.415460000000     0.416760000000     0.107585   
H8       H      0.398400000000     0.341640000000     0.409960000000     0.102431   
H9       H      0.212230000000     0.342500000000     0.443010000000     0.0379566  
H10      H      0.158440000000     0.305020000000     0.381060000000     0.0397202  
H11      H      0.339130000000     0.422030000000     0.362620000000     0.0483104  
H12      H      0.312650000000     0.355790000000     0.335990000000     0.0293112  
H13      H      0.681990000000     0.559830000000     0.305240000000     0.103203   
H14      H      0.739170000000     0.173180000000     0.302240000000     0.110009   
H15      H      0.890420000000     0.147090000000     0.355070000000     0.0485918  
H16      H      0.881730000000     0.093360000000     0.311350000000     0.0309076  
H17      H      0.807000000000     0.625380000000     0.239140000000     0.0331007  
H18      H      0.936350000000     0.678060000000     0.259080000000     0.0384496  
H19      H      0.024170000000     0.332870000000     0.074050000000     0.102436   
H20      H      0.695860000000     0.710720000000     0.507090000000     0.101599   
H21      H      0.796650000000     0.294390000000     0.076660000000     0.0399123  
H22      H      0.876660000000     0.300000000000     0.519550000000     0.0320452  
H23      H      0.785250000000     0.706530000000     0.104890000000     0.0491628  
H24      H      0.882350000000     0.715180000000     0.557340000000     0.044895   
H25      H      0.840590000000     0.461190000000     0.142690000000     0.112757   
H26      H      0.716670000000     0.522100000000     0.681800000000     0.103898   
H27      H      0.856870000000     0.524320000000     0.239560000000     0.0387694  
H28      H      0.984780000000     0.551800000000     0.212720000000     0.0359856  
H29      H      0.926700000000     0.568370000000     0.623980000000     0.0451342  
H30      H      0.906820000000     0.605080000000     0.677680000000     0.0289773  
H31      H      0.841690000000     0.449310000000     0.425470000000     0.112116   
H32      H      0.676890000000     0.322460000000     0.373590000000     0.10625    
H33      H      0.776140000000     0.374550000000     0.515140000000     0.0352097  
H34      H      0.662910000000     0.349440000000     0.473820000000     0.0402521  
H35      H      0.758630000000     0.301760000000     0.450680000000     0.0298625  
H36      H      0.877450000000     0.367440000000     0.440100000000     0.0479091  
H37      H      0.264550000000     0.538230000000     0.689800000000     0.102602   
H38      H      0.366470000000     0.535600000000     0.090580000000     0.106032   
H39      H      0.421800000000     0.535860000000     0.688090000000     0.0358421  
H40      H      0.359460000000     0.469820000000     0.722640000000     0.0402201  
H41      H      0.252740000000     0.432700000000     0.128380000000     0.0482221  
H42      H      0.375180000000     0.437200000000     0.140210000000     0.0415595  
H43      H      0.181130000000     0.415460000000     0.916760000000     0.107579   
H44      H      0.398400000000     0.341640000000     0.909960000000     0.102427   
H45      H      0.212230000000     0.342500000000     0.943010000000     0.0379476  
H46      H      0.158440000000     0.305020000000     0.881060000000     0.0397166  
H47      H      0.339130000000     0.422030000000     0.862620000000     0.0483094  
H48      H      0.312650000000     0.355790000000     0.835990000000     0.0293108  
H49      H      0.681990000000     0.559830000000     0.805240000000     0.103223   
H50      H      0.739170000000     0.173180000000     0.802240000000     0.110008   
H51      H      0.890420000000     0.147090000000     0.855070000000     0.0485861  
H52      H      0.881730000000     0.093360000000     0.811350000000     0.0309085  
H53      H      0.807000000000     0.625380000000     0.739130000000     0.0330935  
H54      H      0.936350000000     0.678060000000     0.759080000000     0.0384441  
H55      H      0.024170000000     0.332870000000     0.574050000000     0.102429   
H56      H      0.695860000000     0.710720000000     0.007090000000     0.101609   
H57      H      0.796650000000     0.294390000000     0.576660000000     0.0399059  
H58      H      0.876660000000     0.300000000000     0.019550000000     0.032058   
H59      H      0.785250000000     0.706530000000     0.604890000000     0.0491599  
H60      H      0.882350000000     0.715180000000     0.057340000000     0.0448985  
H61      H      0.840590000000     0.461190000000     0.642690000000     0.112753   
H62      H      0.716670000000     0.522100000000     0.181800000000     0.1039     
H63      H      0.856870000000     0.524320000000     0.739560000000     0.0387706  
H64      H      0.984780000000     0.551800000000     0.712720000000     0.0359822  
H65      H      0.926700000000     0.568370000000     0.123980000000     0.0451406  
H66      H      0.906820000000     0.605080000000     0.177680000000     0.0289784  
H67      H      0.841690000000     0.449310000000     0.925470000000     0.112113   
H68      H      0.676890000000     0.322460000000     0.873590000000     0.106249   
H69      H      0.776140000000     0.374550000000     0.015140000000     0.0352483  
H70      H      0.662910000000     0.349440000000     0.973820000000     0.040254   
H71      H      0.758630000000     0.301760000000     0.950680000000     0.0298456  
H72      H      0.877450000000     0.367440000000     0.940100000000     0.0478965  
H73      H      0.264560000000     0.038230000000     0.189800000000     0.102614   
H74      H      0.366470000000     0.035600000000     0.590580000000     0.106007   
H75      H      0.421800000000     0.035860000000     0.188090000000     0.0358237  
H76      H      0.359460000000     0.969820000000     0.222640000000     0.0402196  
H77      H      0.252750000000     0.932700000000     0.628380000000     0.0482122  
H78      H      0.375180000000     0.937200000000     0.640210000000     0.0415501  
H79      H      0.181130000000     0.915460000000     0.416760000000     0.107586   
H80      H      0.398400000000     0.841640000000     0.409960000000     0.102434   
H81      H      0.212230000000     0.842500000000     0.443010000000     0.0379588  
H82      H      0.158440000000     0.805020000000     0.381060000000     0.0397225  
H83      H      0.339130000000     0.922040000000     0.362620000000     0.0483026  
H84      H      0.312650000000     0.855790000000     0.335990000000     0.0293052  
H85      H      0.681990000000     0.059830000000     0.305240000000     0.103198   
H86      H      0.739170000000     0.673180000000     0.302240000000     0.110001   
H87      H      0.890420000000     0.647090000000     0.355070000000     0.0485868  
H88      H      0.881740000000     0.593360000000     0.311350000000     0.0309019  
H89      H      0.807000000000     0.125380000000     0.239140000000     0.0330973  
H90      H      0.936350000000     0.178060000000     0.259080000000     0.0384451  
H91      H      0.024170000000     0.832870000000     0.074050000000     0.102435   
H92      H      0.695860000000     0.210720000000     0.507090000000     0.101594   
H93      H      0.796650000000     0.794390000000     0.076660000000     0.0399123  
H94      H      0.876660000000     0.800000000000     0.519550000000     0.0320457  
H95      H      0.785250000000     0.206530000000     0.104890000000     0.0491629  
H96      H      0.882350000000     0.215180000000     0.557340000000     0.044896   
H97      H      0.840590000000     0.961190000000     0.142690000000     0.112763   
H98      H      0.716670000000     0.022100000000     0.681800000000     0.103892   
H99      H      0.856870000000     0.024320000000     0.239560000000     0.0387635  
H100     H      0.984780000000     0.051800000000     0.212720000000     0.0359763  
H101     H      0.926690000000     0.068370000000     0.623980000000     0.045147   
H102     H      0.906820000000     0.105080000000     0.677680000000     0.0289904  
H103     H      0.841700000000     0.949310000000     0.425470000000     0.11208    
H104     H      0.676890000000     0.822460000000     0.373590000000     0.106251   
H105     H      0.776140000000     0.874550000000     0.515140000000     0.0352009  
H106     H      0.662910000000     0.849440000000     0.473820000000     0.0402453  
H107     H      0.758620000000     0.801760000000     0.450680000000     0.0298569  
H108     H      0.877450000000     0.867440000000     0.440100000000     0.0479035  
H109     H      0.264560000000     0.038230000000     0.689800000000     0.102611   
H110     H      0.366470000000     0.035600000000     0.090580000000     0.106032   
H111     H      0.421800000000     0.035860000000     0.688090000000     0.0358253  
H112     H      0.359460000000     0.969820000000     0.722640000000     0.0402206  
H113     H      0.252750000000     0.932700000000     0.128380000000     0.0482236  
H114     H      0.375180000000     0.937200000000     0.140210000000     0.0415582  
H115     H      0.181130000000     0.915460000000     0.916760000000     0.10758    
H116     H      0.398400000000     0.841640000000     0.909960000000     0.10243    
H117     H      0.212230000000     0.842500000000     0.943010000000     0.0379499  
H118     H      0.158440000000     0.805020000000     0.881060000000     0.0397189  
H119     H      0.339130000000     0.922040000000     0.862620000000     0.0483017  
H120     H      0.312650000000     0.855790000000     0.835990000000     0.0293048  
H121     H      0.681990000000     0.059830000000     0.805240000000     0.103218   
H122     H      0.739170000000     0.673180000000     0.802240000000     0.109999   
H123     H      0.890420000000     0.647090000000     0.855070000000     0.0485811  
H124     H      0.881740000000     0.593360000000     0.811350000000     0.0309027  
H125     H      0.807000000000     0.125380000000     0.739130000000     0.0330901  
H126     H      0.936350000000     0.178060000000     0.759080000000     0.0384397  
H127     H      0.024170000000     0.832870000000     0.574050000000     0.102428   
H128     H      0.695860000000     0.210720000000     0.007090000000     0.101603   
H129     H      0.796650000000     0.794390000000     0.576660000000     0.0399059  
H130     H      0.876660000000     0.800000000000     0.019550000000     0.0320585  
H131     H      0.785250000000     0.206530000000     0.604890000000     0.04916    
H132     H      0.882350000000     0.215180000000     0.057340000000     0.0448995  
H133     H      0.840590000000     0.961190000000     0.642690000000     0.112758   
H134     H      0.716670000000     0.022100000000     0.181800000000     0.103894   
H135     H      0.856870000000     0.024320000000     0.739560000000     0.0387647  
H136     H      0.984780000000     0.051800000000     0.712720000000     0.0359729  
H137     H      0.926690000000     0.068370000000     0.123980000000     0.0451534  
H138     H      0.906820000000     0.105080000000     0.177680000000     0.0289915  
H139     H      0.841700000000     0.949310000000     0.925470000000     0.112077   
H140     H      0.676890000000     0.822460000000     0.873590000000     0.10625    
H141     H      0.776140000000     0.874550000000     0.015140000000     0.0352395  
H142     H      0.662910000000     0.849440000000     0.973820000000     0.0402472  
H143     H      0.758620000000     0.801760000000     0.950680000000     0.02984    
H144     H      0.877450000000     0.867440000000     0.940100000000     0.047891   
N1       N      0.259670000000     0.500360000000     0.200240000000    -0.23762    
N2       N      0.380830000000     0.502310000000     0.591730000000    -0.23763    
N3       N      0.157080000000     0.381110000000     0.391060000000    -0.239318   
N4       N      0.392020000000     0.377590000000     0.409890000000    -0.239273   
N5       N      0.736180000000     0.580290000000     0.335970000000    -0.236746   
N6       N      0.812810000000     0.190970000000     0.284490000000    -0.23677    
N7       N      0.952820000000     0.316250000000     0.094020000000    -0.239068   
N8       N      0.734430000000     0.691820000000     0.524300000000    -0.236949   
N9       N      0.871400000000     0.472960000000     0.181390000000    -0.237637   
N10      N      0.768300000000     0.535430000000     0.649340000000    -0.237667   
N11      N      0.786090000000     0.431650000000     0.456060000000    -0.236507   
N12      N      0.757030000000     0.344110000000     0.381040000000    -0.233779   
N13      N      0.259670000000     0.500360000000     0.700240000000    -0.237619   
N14      N      0.380830000000     0.502310000000     0.091720000000    -0.237686   
N15      N      0.157080000000     0.381110000000     0.891060000000    -0.23932    
N16      N      0.392020000000     0.377590000000     0.909890000000    -0.239274   
N17      N      0.736180000000     0.580290000000     0.835960000000    -0.23671    
N18      N      0.812810000000     0.190970000000     0.784490000000    -0.236774   
N19      N      0.952820000000     0.316250000000     0.594020000000    -0.23907    
N20      N      0.734430000000     0.691820000000     0.024300000000    -0.236939   
N21      N      0.871400000000     0.472960000000     0.681390000000    -0.237633   
N22      N      0.768300000000     0.535430000000     0.149340000000    -0.237684   
N23      N      0.786090000000     0.431650000000     0.956060000000    -0.236494   
N24      N      0.757030000000     0.344110000000     0.881040000000    -0.233783   
N25      N      0.259670000000     0.000360000000     0.200240000000    -0.237633   
N26      N      0.380830000000     0.002310000000     0.591730000000    -0.237671   
N27      N      0.157080000000     0.881110000000     0.391060000000    -0.239316   
N28      N      0.392020000000     0.877590000000     0.409890000000    -0.239295   
N29      N      0.736180000000     0.080290000000     0.335970000000    -0.236733   
N30      N      0.812810000000     0.690970000000     0.284490000000    -0.236741   
N31      N      0.952820000000     0.816250000000     0.094020000000    -0.239068   
N32      N      0.734430000000     0.191820000000     0.524300000000    -0.236922   
N33      N      0.871390000000     0.972960000000     0.181390000000    -0.237617   
N34      N      0.768300000000     0.035430000000     0.649340000000    -0.237656   
N35      N      0.786090000000     0.931640000000     0.456060000000    -0.23645    
N36      N      0.757030000000     0.844110000000     0.381040000000    -0.233796   
N37      N      0.259670000000     0.000360000000     0.700240000000    -0.237633   
N38      N      0.380830000000     0.002310000000     0.091720000000    -0.237727   
N39      N      0.157080000000     0.881110000000     0.891060000000    -0.239317   
N40      N      0.392020000000     0.877590000000     0.909890000000    -0.239296   
N41      N      0.736180000000     0.080290000000     0.835960000000    -0.236696   
N42      N      0.812810000000     0.690970000000     0.784490000000    -0.236745   
N43      N      0.952820000000     0.816250000000     0.594020000000    -0.23907    
N44      N      0.734430000000     0.191820000000     0.024300000000    -0.236912   
N45      N      0.871390000000     0.972960000000     0.681390000000    -0.237613   
N46      N      0.768300000000     0.035430000000     0.149340000000    -0.237674   
N47      N      0.786090000000     0.931640000000     0.956060000000    -0.236437   
N48      N      0.757030000000     0.844110000000     0.881040000000    -0.233799   
O1       O      0.787600000000     0.541810000000     0.558470000000    -0.504865   
O2       O      0.608970000000     0.534830000000     0.397660000000    -0.50685    
O3       O      0.632200000000     0.497450000000     0.592040000000    -0.510582   
O4       O      0.684710000000     0.445290000000     0.515680000000    -0.495782   
O5       O      0.752240000000     0.615420000000     0.528960000000    -0.508995   
O6       O      0.450090000000     0.465200000000     0.444900000000    -0.496339   
O7       O      0.630040000000     0.519210000000     0.494720000000    -0.870377   
O8       O      0.493770000000     0.541760000000     0.523090000000    -0.51139    
O9       O      0.460330000000     0.459800000000     0.551240000000    -0.501392   
O10      O      0.774450000000     0.509590000000     0.456020000000    -0.513046   
O11      O      0.521170000000     0.417260000000     0.470750000000    -0.513693   
O12      O      0.640240000000     0.614260000000     0.472120000000    -0.491226   
O13      O      0.765790000000     0.591540000000     0.425990000000    -0.502532   
O14      O      0.787620000000     0.351760000000     0.291300000000    -0.498043   
O15      O      0.038000000000     0.351110000000     0.172250000000    -0.512339   
O16      O      0.920030000000     0.390340000000     0.345280000000    -0.50319    
O17      O      0.922430000000     0.448580000000     0.257620000000    -0.503371   
O18      O      0.814800000000     0.272640000000     0.276570000000    -0.510319   
O19      O      0.165910000000     0.414030000000     0.238220000000    -0.503664   
O20      O      0.966670000000     0.368070000000     0.256440000000    -0.868269   
O21      O      0.066340000000     0.337160000000     0.315170000000    -0.503229   
O22      O      0.103840000000     0.422650000000     0.331860000000    -0.511154   
O23      O      0.863300000000     0.389560000000     0.191410000000    -0.508197   
O24      O      0.100280000000     0.468610000000     0.237500000000    -0.503693   
O25      O      0.948350000000     0.269190000000     0.246610000000    -0.500366   
O26      O      0.868830000000     0.303850000000     0.173710000000    -0.502349   
O27      O      0.787600000000     0.541810000000     0.058480000000    -0.504851   
O28      O      0.608970000000     0.534830000000     0.897660000000    -0.506807   
O29      O      0.632200000000     0.497450000000     0.092040000000    -0.510621   
O30      O      0.684710000000     0.445290000000     0.015680000000    -0.495745   
O31      O      0.752240000000     0.615420000000     0.028960000000    -0.508939   
O32      O      0.450090000000     0.465200000000     0.944900000000    -0.496346   
O33      O      0.630040000000     0.519210000000     0.994720000000    -0.870373   
O34      O      0.493770000000     0.541760000000     0.023100000000    -0.511365   
O35      O      0.460330000000     0.459800000000     0.051240000000    -0.501428   
O36      O      0.774450000000     0.509590000000     0.956020000000    -0.513022   
O37      O      0.521170000000     0.417260000000     0.970750000000    -0.51372    
O38      O      0.640240000000     0.614260000000     0.972120000000    -0.491323   
O39      O      0.765790000000     0.591540000000     0.925990000000    -0.502497   
O40      O      0.787620000000     0.351760000000     0.791300000000    -0.498045   
O41      O      0.038000000000     0.351110000000     0.672250000000    -0.512342   
O42      O      0.920030000000     0.390340000000     0.845280000000    -0.503193   
O43      O      0.922430000000     0.448580000000     0.757630000000    -0.503317   
O44      O      0.814800000000     0.272640000000     0.776570000000    -0.510335   
O45      O      0.165910000000     0.414030000000     0.738220000000    -0.503666   
O46      O      0.966670000000     0.368070000000     0.756440000000    -0.868283   
O47      O      0.066340000000     0.337160000000     0.815170000000    -0.503232   
O48      O      0.103840000000     0.422650000000     0.831860000000    -0.511161   
O49      O      0.863300000000     0.389560000000     0.691420000000    -0.508278   
O50      O      0.100280000000     0.468610000000     0.737500000000    -0.503702   
O51      O      0.948350000000     0.269190000000     0.746610000000    -0.50037    
O52      O      0.868830000000     0.303850000000     0.673710000000    -0.502362   
O53      O      0.787600000000     0.041810000000     0.558470000000    -0.504863   
O54      O      0.608970000000     0.034830000000     0.397660000000    -0.506841   
O55      O      0.632200000000     0.997450000000     0.592040000000    -0.510559   
O56      O      0.684710000000     0.945290000000     0.515680000000    -0.495713   
O57      O      0.752230000000     0.115420000000     0.528960000000    -0.509083   
O58      O      0.450080000000     0.965190000000     0.444900000000    -0.496341   
O59      O      0.630040000000     0.019210000000     0.494720000000    -0.870366   
O60      O      0.493770000000     0.041760000000     0.523090000000    -0.511435   
O61      O      0.460330000000     0.959810000000     0.551240000000    -0.50147    
O62      O      0.774450000000     0.009590000000     0.456020000000    -0.513009   
O63      O      0.521170000000     0.917260000000     0.470750000000    -0.51372    
O64      O      0.640240000000     0.114260000000     0.472120000000    -0.491301   
O65      O      0.765800000000     0.091540000000     0.425990000000    -0.502502   
O66      O      0.787620000000     0.851760000000     0.291300000000    -0.49805    
O67      O      0.038000000000     0.851110000000     0.172250000000    -0.512338   
O68      O      0.920030000000     0.890340000000     0.345280000000    -0.503133   
O69      O      0.922430000000     0.948580000000     0.257620000000    -0.503361   
O70      O      0.814800000000     0.772650000000     0.276570000000    -0.510272   
O71      O      0.165920000000     0.914030000000     0.238220000000    -0.503602   
O72      O      0.966670000000     0.868070000000     0.256440000000    -0.868269   
O73      O      0.066340000000     0.837160000000     0.315170000000    -0.503221   
O74      O      0.103840000000     0.922650000000     0.331860000000    -0.511153   
O75      O      0.863300000000     0.889560000000     0.191410000000    -0.508201   
O76      O      0.100280000000     0.968610000000     0.237500000000    -0.503676   
O77      O      0.948350000000     0.769190000000     0.246610000000    -0.500311   
O78      O      0.868830000000     0.803850000000     0.173710000000    -0.502359   
O79      O      0.787600000000     0.041810000000     0.058480000000    -0.50485    
O80      O      0.608970000000     0.034830000000     0.897660000000    -0.506799   
O81      O      0.632200000000     0.997450000000     0.092040000000    -0.510598   
O82      O      0.684710000000     0.945290000000     0.015680000000    -0.495676   
O83      O      0.752230000000     0.115420000000     0.028960000000    -0.509028   
O84      O      0.450080000000     0.965190000000     0.944900000000    -0.496348   
O85      O      0.630040000000     0.019210000000     0.994720000000    -0.870362   
O86      O      0.493770000000     0.041760000000     0.023100000000    -0.51141    
O87      O      0.460330000000     0.959810000000     0.051240000000    -0.501506   
O88      O      0.774450000000     0.009590000000     0.956020000000    -0.512984   
O89      O      0.521170000000     0.917260000000     0.970750000000    -0.513747   
O90      O      0.640240000000     0.114260000000     0.972120000000    -0.491398   
O91      O      0.765800000000     0.091540000000     0.925990000000    -0.502466   
O92      O      0.787620000000     0.851760000000     0.791300000000    -0.498051   
O93      O      0.038000000000     0.851110000000     0.672250000000    -0.512341   
O94      O      0.920030000000     0.890340000000     0.845280000000    -0.503136   
O95      O      0.922430000000     0.948580000000     0.757630000000    -0.503307   
O96      O      0.814800000000     0.772650000000     0.776570000000    -0.510288   
O97      O      0.165920000000     0.914030000000     0.738220000000    -0.503604   
O98      O      0.966670000000     0.868070000000     0.756440000000    -0.868283   
O99      O      0.066340000000     0.837160000000     0.815170000000    -0.503223   
O100     O      0.103840000000     0.922650000000     0.831860000000    -0.51116    
O101     O      0.863300000000     0.889560000000     0.691420000000    -0.508283   
O102     O      0.100280000000     0.968610000000     0.737500000000    -0.503686   
O103     O      0.948350000000     0.769190000000     0.746610000000    -0.500315   
O104     O      0.868830000000     0.803850000000     0.673710000000    -0.502372   


