data_structure

_audit_creation_method RASPA-1.0
_audit_creation_date 2023-5-19
_audit_author_name 'Poobodin Mano'

_cell_length_a    25.8895
_cell_length_b    25.9419
_cell_length_c    25.7313
_cell_angle_alpha 90
_cell_angle_beta  90
_cell_angle_gamma 90
_cell_volume      17281.7

_symmetry_cell_setting          triclinic
_symmetry_space_group_name_Hall 'P 1'
_symmetry_space_group_name_H-M  'P 1'
_symmetry_Int_Tables_number     1

_symmetry_equiv_pos_as_xyz 'x,y,z'

loop_
_atom_site_label
_atom_site_type_symbol
_atom_site_fract_x
_atom_site_fract_y
_atom_site_fract_z
_atom_site_charge
C1       C      0.009150000000     0.012850000000     0.153400000000     0.368123   
C2       C      0.150350000000     0.001910000000     0.004220000000     0.368168   
C3       C      0.006560000000     0.864640000000     0.014790000000     0.366688   
C4       C      0.005610000000     0.011430000000     0.866300000000     0.367005   
C5       C      0.008690000000     0.150160000000     0.014730000000     0.367228   
C6       C      0.865790000000     0.002800000000     0.006680000000     0.367274   
C7       C      0.008570000000     0.009470000000     0.367020000000     0.366918   
C8       C      0.150390000000     0.005830000000     0.515770000000     0.371262   
C9       C      0.007090000000     0.149240000000     0.505590000000     0.369773   
C10      C      0.005490000000     0.008840000000     0.652240000000     0.364429   
C11      C      0.008240000000     0.863350000000     0.505070000000     0.367438   
C12      C      0.864140000000     0.005250000000     0.513800000000     0.371726   
C13      C      0.012380000000     0.503180000000     0.868330000000     0.361476   
C14      C      0.865250000000     0.511710000000     0.008970000000     0.363705   
C15      C      0.008450000000     0.362440000000     0.012610000000     0.369559   
C16      C      0.004050000000     0.502390000000     0.154950000000     0.365975   
C17      C      0.006850000000     0.652250000000     0.013430000000     0.368936   
C18      C      0.150910000000     0.511480000000     0.017430000000     0.363043   
C19      C      0.007940000000     0.361170000000     0.509990000000     0.371793   
C20      C      0.011430000000     0.504180000000     0.653650000000     0.358886   
C21      C      0.151800000000     0.507220000000     0.507060000000     0.367573   
C22      C      0.008180000000     0.651160000000     0.509370000000     0.369601   
C23      C      0.864210000000     0.505950000000     0.512420000000     0.367622   
C24      C      0.004570000000     0.503530000000     0.368950000000     0.363835   
C25      C      0.363920000000     0.003830000000     0.007650000000     0.369827   
C26      C      0.506960000000     0.006940000000     0.153860000000     0.367105   
C27      C      0.508360000000     0.864120000000     0.008280000000     0.366511   
C28      C      0.652270000000     0.004430000000     0.009720000000     0.369422   
C29      C      0.507760000000     0.149000000000     0.008920000000     0.363821   
C30      C      0.508860000000     0.007750000000     0.867400000000     0.374432   
C31      C      0.363640000000     0.005960000000     0.513560000000     0.371865   
C32      C      0.506780000000     0.007020000000     0.367720000000     0.367706   
C33      C      0.507200000000     0.149120000000     0.513250000000     0.366203   
C34      C      0.650870000000     0.005980000000     0.512110000000     0.371842   
C35      C      0.507210000000     0.864260000000     0.513650000000     0.366216   
C36      C      0.508130000000     0.007640000000     0.654590000000     0.374617   
C37      C      0.364000000000     0.508840000000     0.018830000000     0.364764   
C38      C      0.508170000000     0.362790000000     0.007120000000     0.366423   
C39      C      0.506030000000     0.506040000000     0.868600000000     0.36383    
C40      C      0.652090000000     0.510090000000     0.012560000000     0.365039   
C41      C      0.510330000000     0.506390000000     0.154280000000     0.366664   
C42      C      0.507290000000     0.650790000000     0.006580000000     0.369074   
C43      C      0.364520000000     0.507520000000     0.504890000000     0.367246   
C44      C      0.506960000000     0.362620000000     0.515680000000     0.369072   
C45      C      0.510000000000     0.506600000000     0.368190000000     0.366962   
C46      C      0.651430000000     0.505710000000     0.508900000000     0.3672     
C47      C      0.506350000000     0.506550000000     0.654090000000     0.363824   
C48      C      0.508320000000     0.650740000000     0.515720000000     0.368952   
C49      C      0.460420000000     0.507210000000     0.788430000000     0.0332282  
C50      C      0.551580000000     0.504880000000     0.788540000000     0.0331851  
C51      C      0.551670000000     0.507310000000     0.734290000000     0.0332356  
C52      C      0.460510000000     0.505090000000     0.734110000000     0.033213   
C53      C      0.509510000000     0.460900000000     0.234170000000     0.0339201  
C54      C      0.512330000000     0.551930000000     0.234070000000     0.0338616  
C55      C      0.509600000000     0.552010000000     0.288280000000     0.0339016  
C56      C      0.511990000000     0.460970000000     0.288420000000     0.0339067  
C57      C      0.537280000000     0.784920000000     0.549590000000     0.031751   
C58      C      0.476890000000     0.783900000000     0.480990000000     0.0318376  
C59      C      0.477090000000     0.730140000000     0.481720000000     0.0316365  
C60      C      0.537490000000     0.731020000000     0.550320000000     0.0320614  
C61      C      0.538520000000     0.283140000000     0.482180000000     0.0316423  
C62      C      0.476550000000     0.282420000000     0.549350000000     0.0320491  
C63      C      0.476520000000     0.228510000000     0.548510000000     0.0317265  
C64      C      0.538460000000     0.229390000000     0.481310000000     0.0318247  
C65      C      0.538140000000     0.783910000000     0.041580000000     0.0319252  
C66      C      0.478750000000     0.784800000000     0.972080000000     0.0324595  
C67      C      0.478490000000     0.730930000000     0.971490000000     0.0326294  
C68      C      0.537970000000     0.730180000000     0.040920000000     0.0317758  
C69      C      0.539190000000     0.282540000000     0.973950000000     0.0322928  
C70      C      0.475660000000     0.283130000000     0.039590000000     0.0314411  
C71      C      0.475650000000     0.229310000000     0.040270000000     0.0315248  
C72      C      0.539210000000     0.228600000000     0.974670000000     0.0321391  
C73      C      0.554360000000     0.009700000000     0.787860000000     0.0340268  
C74      C      0.463010000000     0.007100000000     0.788140000000     0.0340389  
C75      C      0.462820000000     0.009470000000     0.734140000000     0.0340282  
C76      C      0.554180000000     0.007070000000     0.733830000000     0.034012   
C77      C      0.552430000000     0.006290000000     0.233730000000     0.0333112  
C78      C      0.461190000000     0.008300000000     0.233620000000     0.033332   
C79      C      0.461160000000     0.005650000000     0.287860000000     0.0333084  
C80      C      0.552370000000     0.008840000000     0.287930000000     0.0333324  
C81      C      0.730870000000     0.460110000000     0.510620000000     0.0336603  
C82      C      0.730840000000     0.551120000000     0.508330000000     0.0338444  
C83      C      0.784800000000     0.551070000000     0.507160000000     0.0338991  
C84      C      0.784780000000     0.460340000000     0.514880000000     0.033782   
C85      C      0.231190000000     0.552970000000     0.508330000000     0.0338039  
C86      C      0.231180000000     0.462220000000     0.500810000000     0.03389    
C87      C      0.285130000000     0.462140000000     0.502530000000     0.0338558  
C88      C      0.285130000000     0.553170000000     0.504590000000     0.0336975  
C89      C      0.786000000000     0.466320000000     0.011810000000     0.0335594  
C90      C      0.785320000000     0.557210000000     0.007290000000     0.0334388  
C91      C      0.731270000000     0.556780000000     0.011570000000     0.033468   
C92      C      0.732070000000     0.465790000000     0.010800000000     0.0335278  
C93      C      0.230910000000     0.556340000000     0.022440000000     0.0335966  
C94      C      0.229960000000     0.465420000000     0.018780000000     0.0334892  
C95      C      0.283880000000     0.464650000000     0.022100000000     0.0334234  
C96      C      0.285010000000     0.555630000000     0.020380000000     0.0335499  
C97      C      0.011650000000     0.548540000000     0.788350000000     0.0335346  
C98      C      0.015690000000     0.457650000000     0.788020000000     0.0335843  
C99      C      0.012570000000     0.457920000000     0.733570000000     0.033241   
C100     C      0.013880000000     0.548890000000     0.734030000000     0.0332896  
C101     C      0.000740000000     0.456790000000     0.235000000000     0.0331374  
C102     C      0.004400000000     0.547780000000     0.234620000000     0.0340702  
C103     C      0.002070000000     0.548160000000     0.288790000000     0.0337806  
C104     C      0.003680000000     0.457120000000     0.289340000000     0.0341377  
C105     C      0.053960000000     0.784120000000     0.503060000000     0.0330518  
C106     C      0.962790000000     0.784150000000     0.506930000000     0.0338673  
C107     C      0.962760000000     0.730330000000     0.506040000000     0.0339688  
C108     C      0.054000000000     0.730360000000     0.507460000000     0.0333189  
C109     C      0.052890000000     0.228190000000     0.506590000000     0.0333708  
C110     C      0.961630000000     0.228530000000     0.504710000000     0.0337981  
C111     C      0.961850000000     0.282210000000     0.508990000000     0.0339499  
C112     C      0.053080000000     0.281940000000     0.505880000000     0.0335129  
C113     C      0.784710000000     0.038230000000     0.481800000000     0.0316177  
C114     C      0.784090000000     0.973390000000     0.546150000000     0.032466   
C115     C      0.730210000000     0.973330000000     0.545320000000     0.0324174  
C116     C      0.730970000000     0.038440000000     0.481250000000     0.0319037  
C117     C      0.230390000000     0.036940000000     0.549000000000     0.0318655  
C118     C      0.229860000000     0.972480000000     0.484270000000     0.0321559  
C119     C      0.283600000000     0.972580000000     0.483500000000     0.0324321  
C120     C      0.284260000000     0.037330000000     0.547930000000     0.0318979  
C121     C      0.006660000000     0.785580000000     0.968880000000     0.0333959  
C122     C      0.004690000000     0.785090000000     0.060650000000     0.0328017  
C123     C      0.007200000000     0.731220000000     0.060200000000     0.0330971  
C124     C      0.004560000000     0.731870000000     0.968450000000     0.0334451  
C125     C      0.054310000000     0.229460000000     0.017540000000     0.0328611  
C126     C      0.963160000000     0.229380000000     0.013430000000     0.0334424  
C127     C      0.963080000000     0.283140000000     0.014680000000     0.0337247  
C128     C      0.054320000000     0.283230000000     0.014110000000     0.0329901  
C129     C      0.786130000000     0.968410000000     0.037420000000     0.0320828  
C130     C      0.785730000000     0.034690000000     0.974650000000     0.0321871  
C131     C      0.731910000000     0.035580000000     0.975960000000     0.0322989  
C132     C      0.732230000000     0.969150000000     0.038580000000     0.0323604  
C133     C      0.229540000000     0.035350000000     0.036110000000     0.0313705  
C134     C      0.230930000000     0.968850000000     0.973590000000     0.0329741  
C135     C      0.284950000000     0.969320000000     0.974750000000     0.0328694  
C136     C      0.283240000000     0.035940000000     0.037130000000     0.0317907  
C137     C      0.006500000000     0.965470000000     0.786880000000     0.0336306  
C138     C      0.002190000000     0.056410000000     0.785870000000     0.033175   
C139     C      0.004540000000     0.055730000000     0.731570000000     0.0328842  
C140     C      0.004280000000     0.964690000000     0.732760000000     0.0333328  
C141     C      0.963580000000     0.014330000000     0.233070000000     0.0340483  
C142     C      0.054860000000     0.013120000000     0.233200000000     0.0333464  
C143     C      0.054610000000     0.009220000000     0.287350000000     0.0332792  
C144     C      0.963540000000     0.015370000000     0.287240000000     0.0339755  
H1       H      0.423550000000     0.507630000000     0.808440000000     0.0441224  
H2       H      0.588430000000     0.504410000000     0.808600000000     0.0442857  
H3       H      0.588580000000     0.507760000000     0.714340000000     0.0441813  
H4       H      0.423700000000     0.504750000000     0.713990000000     0.0441312  
H5       H      0.508850000000     0.424160000000     0.214050000000     0.0426366  
H6       H      0.512930000000     0.588640000000     0.213870000000     0.0429123  
H7       H      0.509030000000     0.588760000000     0.308390000000     0.0427617  
H8       H      0.512360000000     0.424270000000     0.308630000000     0.0427645  
H9       H      0.561770000000     0.804880000000     0.577210000000     0.046086   
H10      H      0.452250000000     0.802940000000     0.452830000000     0.0455355  
H11      H      0.452570000000     0.710340000000     0.454000000000     0.046031   
H12      H      0.562130000000     0.711800000000     0.578360000000     0.0455222  
H13      H      0.563760000000     0.302890000000     0.455080000000     0.0460279  
H14      H      0.451370000000     0.301690000000     0.576850000000     0.0455107  
H15      H      0.451320000000     0.208610000000     0.575520000000     0.046048   
H16      H      0.563650000000     0.210300000000     0.453690000000     0.0454913  
H17      H      0.562390000000     0.803000000000     0.070050000000     0.0456686  
H18      H      0.454660000000     0.804710000000     0.944060000000     0.0461884  
H19      H      0.454250000000     0.711660000000     0.943150000000     0.0456501  
H20      H      0.562100000000     0.710430000000     0.069030000000     0.046164   
H21      H      0.565040000000     0.301850000000     0.947120000000     0.0455018  
H22      H      0.449800000000     0.302830000000     0.066120000000     0.0458704  
H23      H      0.449800000000     0.210130000000     0.067200000000     0.0454393  
H24      H      0.565060000000     0.208780000000     0.948220000000     0.0459698  
H25      H      0.591210000000     0.010220000000     0.807940000000     0.042542   
H26      H      0.426270000000     0.006560000000     0.808440000000     0.0426135  
H27      H      0.425950000000     0.009830000000     0.714090000000     0.0426564  
H28      H      0.590900000000     0.006540000000     0.713500000000     0.0424447  
H29      H      0.589260000000     0.005970000000     0.213620000000     0.042184   
H30      H      0.424410000000     0.008590000000     0.213420000000     0.0421128  
H31      H      0.424350000000     0.004840000000     0.308000000000     0.0420316  
H32      H      0.589150000000     0.009580000000     0.308110000000     0.0422276  
H33      H      0.710810000000     0.423410000000     0.511640000000     0.0422044  
H34      H      0.710790000000     0.587810000000     0.506510000000     0.0422251  
H35      H      0.804840000000     0.587740000000     0.505010000000     0.0421785  
H36      H      0.804840000000     0.423760000000     0.517980000000     0.0420904  
H37      H      0.211110000000     0.589540000000     0.511340000000     0.041807   
H38      H      0.211160000000     0.425540000000     0.498730000000     0.0424155  
H39      H      0.305190000000     0.425450000000     0.501110000000     0.0421178  
H40      H      0.305190000000     0.589860000000     0.505820000000     0.0421551  
H41      H      0.806220000000     0.429700000000     0.012640000000     0.0428753  
H42      H      0.805120000000     0.594010000000     0.005480000000     0.0421982  
H43      H      0.710870000000     0.593300000000     0.011870000000     0.0425373  
H44      H      0.712460000000     0.428830000000     0.011460000000     0.0425273  
H45      H      0.211270000000     0.593260000000     0.023060000000     0.0423839  
H46      H      0.209550000000     0.428910000000     0.017450000000     0.0424883  
H47      H      0.303370000000     0.427640000000     0.022240000000     0.0425797  
H48      H      0.305540000000     0.592080000000     0.020120000000     0.0424529  
H49      H      0.010550000000     0.585200000000     0.808600000000     0.0425754  
H50      H      0.016870000000     0.420880000000     0.808050000000     0.0423234  
H51      H      0.012280000000     0.421320000000     0.713190000000     0.0426869  
H52      H      0.013670000000     0.585770000000     0.714160000000     0.0428224  
H53      H      0.999760000000     0.420030000000     0.214940000000     0.0433352  
H54      H      0.005360000000     0.584440000000     0.214340000000     0.0429484  
H55      H      0.002130000000     0.585060000000     0.308660000000     0.0431071  
H56      H      0.004030000000     0.420550000000     0.309780000000     0.0428549  
H57      H      0.090720000000     0.804130000000     0.501600000000     0.0420856  
H58      H      0.925990000000     0.804140000000     0.507600000000     0.0420961  
H59      H      0.925940000000     0.710370000000     0.506600000000     0.0420503  
H60      H      0.090790000000     0.710350000000     0.508170000000     0.0417156  
H61      H      0.089640000000     0.208100000000     0.506410000000     0.0425828  
H62      H      0.924750000000     0.208680000000     0.504030000000     0.0425339  
H63      H      0.925130000000     0.302320000000     0.510370000000     0.0421976  
H64      H      0.089980000000     0.301750000000     0.505760000000     0.0425166  
H65      H      0.804470000000     0.064640000000     0.455880000000     0.0457261  
H66      H      0.803440000000     0.946990000000     0.572380000000     0.0451794  
H67      H      0.710290000000     0.946970000000     0.571170000000     0.0455944  
H68      H      0.711760000000     0.064890000000     0.454960000000     0.0450348  
H69      H      0.210990000000     0.063120000000     0.575420000000     0.0453093  
H70      H      0.210140000000     0.946130000000     0.458250000000     0.045606   
H71      H      0.302850000000     0.946390000000     0.456960000000     0.0450494  
H72      H      0.304130000000     0.063670000000     0.573830000000     0.0455579  
H73      H      0.006880000000     0.805640000000     0.931880000000     0.0431449  
H74      H      0.004350000000     0.804830000000     0.097810000000     0.0430274  
H75      H      0.007860000000     0.711010000000     0.097100000000     0.0429568  
H76      H      0.004090000000     0.712300000000     0.931200000000     0.0427834  
H77      H      0.091140000000     0.209560000000     0.018900000000     0.0428892  
H78      H      0.926340000000     0.209440000000     0.012480000000     0.042882   
H79      H      0.926190000000     0.302980000000     0.014010000000     0.0428361  
H80      H      0.091130000000     0.303200000000     0.013990000000     0.0425026  
H81      H      0.805860000000     0.941270000000     0.062580000000     0.0457453  
H82      H      0.805090000000     0.061480000000     0.948810000000     0.0457148  
H83      H      0.712250000000     0.062840000000     0.950870000000     0.0455879  
H84      H      0.712790000000     0.942470000000     0.064460000000     0.045216   
H85      H      0.209590000000     0.062360000000     0.061250000000     0.0461699  
H86      H      0.211830000000     0.941710000000     0.947930000000     0.0450629  
H87      H      0.305310000000     0.942490000000     0.949760000000     0.0456898  
H88      H      0.301990000000     0.063220000000     0.062900000000     0.0450616  
H89      H      0.007730000000     0.928900000000     0.807300000000     0.0432876  
H90      H      0.000970000000     0.093360000000     0.805570000000     0.0430212  
H91      H      0.004210000000     0.092210000000     0.710980000000     0.0435038  
H92      H      0.004760000000     0.927620000000     0.713250000000     0.043482   
H93      H      0.926810000000     0.015590000000     0.212890000000     0.0425245  
H94      H      0.091680000000     0.012400000000     0.213110000000     0.0425482  
H95      H      0.091290000000     0.006680000000     0.307570000000     0.042455   
H96      H      0.926680000000     0.016770000000     0.307260000000     0.0428684  
N1       N      0.505970000000     0.505990000000     0.815430000000    -0.165614   
N2       N      0.506150000000     0.506310000000     0.707260000000    -0.165648   
N3       N      0.510860000000     0.506380000000     0.207310000000    -0.166512   
N4       N      0.510610000000     0.506520000000     0.315160000000    -0.166577   
N5       N      0.507130000000     0.811330000000     0.514750000000    -0.165705   
N6       N      0.507580000000     0.703660000000     0.516190000000    -0.166379   
N7       N      0.507400000000     0.309700000000     0.516010000000    -0.166413   
N8       N      0.507360000000     0.202040000000     0.514330000000    -0.165767   
N9       N      0.508420000000     0.811240000000     0.007300000000    -0.166267   
N10      N      0.507960000000     0.703670000000     0.006080000000    -0.166842   
N11      N      0.507590000000     0.309810000000     0.006620000000    -0.16606    
N12      N      0.507560000000     0.201980000000     0.007970000000    -0.16549    
N13      N      0.508770000000     0.008320000000     0.814610000000    -0.16897    
N14      N      0.508400000000     0.008080000000     0.707370000000    -0.169066   
N15      N      0.506840000000     0.007250000000     0.206880000000    -0.166947   
N16      N      0.506750000000     0.007170000000     0.314700000000    -0.167061   
N17      N      0.704180000000     0.505600000000     0.508820000000    -0.166541   
N18      N      0.811460000000     0.505770000000     0.511830000000    -0.16657    
N19      N      0.204520000000     0.507520000000     0.505380000000    -0.166592   
N20      N      0.311800000000     0.507660000000     0.503430000000    -0.166558   
N21      N      0.812410000000     0.511950000000     0.008920000000    -0.16556    
N22      N      0.704920000000     0.510990000000     0.012040000000    -0.165947   
N23      N      0.203690000000     0.511230000000     0.019740000000    -0.165486   
N24      N      0.311210000000     0.509750000000     0.021020000000    -0.165833   
N25      N      0.013540000000     0.502970000000     0.815140000000    -0.165069   
N26      N      0.012730000000     0.503600000000     0.706840000000    -0.164479   
N27      N      0.002790000000     0.502150000000     0.207980000000    -0.166215   
N28      N      0.003320000000     0.502860000000     0.315900000000    -0.165838   
N29      N      0.008350000000     0.810740000000     0.504410000000    -0.167187   
N30      N      0.008360000000     0.703760000000     0.507830000000    -0.167781   
N31      N      0.007170000000     0.201800000000     0.505060000000    -0.167821   
N32      N      0.007590000000     0.308620000000     0.508510000000    -0.168331   
N33      N      0.811250000000     0.005650000000     0.514160000000    -0.167738   
N34      N      0.703750000000     0.005860000000     0.512840000000    -0.167824   
N35      N      0.203270000000     0.004910000000     0.516720000000    -0.167632   
N36      N      0.310770000000     0.005320000000     0.514970000000    -0.167807   
N37      N      0.005850000000     0.811980000000     0.014940000000    -0.16701    
N38      N      0.006170000000     0.704900000000     0.014080000000    -0.167645   
N39      N      0.008750000000     0.202790000000     0.015730000000    -0.167221   
N40      N      0.008660000000     0.309810000000     0.013650000000    -0.167818   
N41      N      0.812850000000     0.001570000000     0.005850000000    -0.166926   
N42      N      0.705190000000     0.003080000000     0.008200000000    -0.167491   
N43      N      0.203320000000     0.001860000000     0.004380000000    -0.167099   
N44      N      0.310990000000     0.002950000000     0.006520000000    -0.167597   
N45      N      0.004630000000     0.011280000000     0.813230000000    -0.167138   
N46      N      0.004670000000     0.009810000000     0.705300000000    -0.166549   
N47      N      0.009260000000     0.014020000000     0.206370000000    -0.167619   
N48      N      0.008960000000     0.011280000000     0.314060000000    -0.167293   
O1       O      0.008020000000     0.007330000000     0.009850000000    -0.373468   
O2       O      0.973050000000     0.988990000000     0.129900000000    -0.299069   
O3       O      0.126720000000     0.032660000000     0.034440000000    -0.305558   
O4       O      0.028530000000     0.888090000000     0.977350000000    -0.299985   
O5       O      0.045610000000     0.034420000000     0.128120000000    -0.298404   
O6       O      0.984760000000     0.889760000000     0.051420000000    -0.295486   
O7       O      0.124960000000     0.971590000000     0.974440000000    -0.294377   
O8       O      0.983060000000     0.047370000000     0.891530000000    -0.295576   
O9       O      0.044970000000     0.125170000000     0.036900000000    -0.298145   
O10      O      0.028590000000     0.974930000000     0.890000000000    -0.300061   
O11      O      0.972780000000     0.126620000000     0.990590000000    -0.29861    
O12      O      0.889980000000     0.034590000000     0.977690000000    -0.298903   
O13      O      0.890460000000     0.973510000000     0.037820000000    -0.298898   
O14      O      0.007360000000     0.006320000000     0.509650000000    -0.373113   
O15      O      0.973700000000     0.033990000000     0.391850000000    -0.298793   
O16      O      0.126480000000     0.978100000000     0.482900000000    -0.303977   
O17      O      0.042320000000     0.125490000000     0.530430000000    -0.300657   
O18      O      0.042910000000     0.983260000000     0.390900000000    -0.297296   
O19      O      0.971260000000     0.124560000000     0.482450000000    -0.298297   
O20      O      0.125410000000     0.035070000000     0.546710000000    -0.29928    
O21      O      0.985180000000     0.970800000000     0.628160000000    -0.295949   
O22      O      0.042320000000     0.888290000000     0.479530000000    -0.296915   
O23      O      0.026990000000     0.045710000000     0.627470000000    -0.297213   
O24      O      0.974600000000     0.886870000000     0.532350000000    -0.29855    
O25      O      0.889080000000     0.976050000000     0.544800000000    -0.299005   
O26      O      0.888140000000     0.033900000000     0.481840000000    -0.305009   
O27      O      0.008130000000     0.507370000000     0.011800000000    -0.367109   
O28      O      0.038850000000     0.470120000000     0.894010000000    -0.291153   
O29      O      0.890380000000     0.544750000000     0.982010000000    -0.291178   
O30      O      0.971350000000     0.386910000000     0.033580000000    -0.299695   
O31      O      0.985210000000     0.537180000000     0.891620000000    -0.29449    
O32      O      0.045360000000     0.386650000000     0.990920000000    -0.298323   
O33      O      0.888780000000     0.477620000000     0.035700000000    -0.29724    
O34      O      0.030830000000     0.536670000000     0.131820000000    -0.298051   
O35      O      0.985610000000     0.628040000000     0.976070000000    -0.297883   
O36      O      0.977870000000     0.469250000000     0.129280000000    -0.293307   
O37      O      0.028930000000     0.627760000000     0.050030000000    -0.299323   
O38      O      0.125200000000     0.544840000000     0.043390000000    -0.292357   
O39      O      0.127980000000     0.477460000000     0.989990000000    -0.295201   
O40      O      0.008040000000     0.506040000000     0.511210000000    -0.366758   
O41      O      0.043340000000     0.385720000000     0.486400000000    -0.300947   
O42      O      0.985200000000     0.469850000000     0.629460000000    -0.291198   
O43      O      0.128110000000     0.539170000000     0.536270000000    -0.295808   
O44      O      0.972730000000     0.385190000000     0.534520000000    -0.299005   
O45      O      0.126900000000     0.474680000000     0.479660000000    -0.296983   
O46      O      0.036030000000     0.539410000000     0.628970000000    -0.291963   
O47      O      0.973390000000     0.626420000000     0.484980000000    -0.299107   
O48      O      0.888520000000     0.473700000000     0.540780000000    -0.295494   
O49      O      0.042850000000     0.627270000000     0.534880000000    -0.298096   
O50      O      0.888520000000     0.538090000000     0.484040000000    -0.297333   
O51      O      0.980190000000     0.538870000000     0.393440000000    -0.294617   
O52      O      0.030650000000     0.469260000000     0.393150000000    -0.294921   
O53      O      0.508080000000     0.006420000000     0.010430000000    -0.371145   
O54      O      0.389380000000     0.972580000000     0.979540000000    -0.301195   
O55      O      0.472190000000     0.031770000000     0.129160000000    -0.2976     
O56      O      0.535750000000     0.888160000000     0.041790000000    -0.297785   
O57      O      0.387500000000     0.036060000000     0.036640000000    -0.300181   
O58      O      0.480830000000     0.888970000000     0.975690000000    -0.299157   
O59      O      0.541860000000     0.981750000000     0.129760000000    -0.297637   
O60      O      0.627900000000     0.036740000000     0.981700000000    -0.301253   
O61      O      0.477850000000     0.124760000000     0.040080000000    -0.29619    
O62      O      0.627590000000     0.973210000000     0.038800000000    -0.299676   
O63      O      0.537850000000     0.124240000000     0.978540000000    -0.297459   
O64      O      0.543860000000     0.032090000000     0.891970000000    -0.302174   
O65      O      0.473950000000     0.982740000000     0.891350000000    -0.302514   
O66      O      0.507250000000     0.006670000000     0.511360000000    -0.371649   
O67      O      0.388330000000     0.037770000000     0.541770000000    -0.303171   
O68      O      0.472340000000     0.981490000000     0.392110000000    -0.297601   
O69      O      0.536080000000     0.125040000000     0.481040000000    -0.297532   
O70      O      0.387890000000     0.974680000000     0.484170000000    -0.300962   
O71      O      0.478200000000     0.124250000000     0.544540000000    -0.299264   
O72      O      0.541360000000     0.032310000000     0.392140000000    -0.298522   
O73      O      0.626100000000     0.974460000000     0.540590000000    -0.30264    
O74      O      0.478980000000     0.888260000000     0.480800000000    -0.297347   
O75      O      0.626680000000     0.037760000000     0.483220000000    -0.301441   
O76      O      0.535560000000     0.889190000000     0.545480000000    -0.299143   
O77      O      0.542990000000     0.982840000000     0.630320000000    -0.302137   
O78      O      0.472900000000     0.031880000000     0.630310000000    -0.303073   
O79      O      0.507900000000     0.507010000000     0.011410000000    -0.367656   
O80      O      0.387630000000     0.542620000000     0.991810000000    -0.295503   
O81      O      0.479160000000     0.386940000000     0.038790000000    -0.300517   
O82      O      0.543350000000     0.484630000000     0.892970000000    -0.295404   
O83      O      0.389010000000     0.473400000000     0.042420000000    -0.294592   
O84      O      0.469030000000     0.527800000000     0.893170000000    -0.29465    
O85      O      0.538120000000     0.387740000000     0.976700000000    -0.295147   
O86      O      0.627080000000     0.544650000000     0.037350000000    -0.29468    
O87      O      0.484380000000     0.472020000000     0.130160000000    -0.296506   
O88      O      0.628320000000     0.474750000000     0.987730000000    -0.296122   
O89      O      0.535360000000     0.541070000000     0.129640000000    -0.296779   
O90      O      0.534880000000     0.626750000000     0.039500000000    -0.302491   
O91      O      0.478830000000     0.625840000000     0.974800000000    -0.296119   
O92      O      0.507880000000     0.506660000000     0.511200000000    -0.36827    
O93      O      0.389840000000     0.542500000000     0.481040000000    -0.295804   
O94      O      0.477650000000     0.387590000000     0.546660000000    -0.296516   
O95      O      0.534960000000     0.471970000000     0.392940000000    -0.296926   
O96      O      0.387740000000     0.472930000000     0.531200000000    -0.297524   
O97      O      0.484320000000     0.541230000000     0.392210000000    -0.296939   
O98      O      0.535540000000     0.386700000000     0.483640000000    -0.302164   
O99      O      0.627500000000     0.540620000000     0.534120000000    -0.297583   
O100     O      0.469320000000     0.485070000000     0.629330000000    -0.294982   
O101     O      0.626760000000     0.470530000000     0.484680000000    -0.29581    
O102     O      0.543680000000     0.528140000000     0.629900000000    -0.295464   
O103     O      0.536940000000     0.625830000000     0.547390000000    -0.296547   
O104     O      0.480710000000     0.626590000000     0.482870000000    -0.302098   
Zn1      Zn     0.965560000000     0.965810000000     0.055970000000     0.45668    
Zn2      Zn     0.054510000000     0.048940000000     0.051300000000     0.459198   
Zn3      Zn     0.046940000000     0.961880000000     0.964320000000     0.456937   
Zn4      Zn     0.964910000000     0.052820000000     0.968370000000     0.45633    
Zn5      Zn     0.961750000000     0.048540000000     0.467630000000     0.460444   
Zn6      Zn     0.052930000000     0.964850000000     0.466600000000     0.458111   
Zn7      Zn     0.049340000000     0.051700000000     0.552430000000     0.455851   
Zn8      Zn     0.965380000000     0.961170000000     0.552680000000     0.455929   
Zn9      Zn     0.053710000000     0.461810000000     0.972180000000     0.450283   
Zn10     Zn     0.968020000000     0.552870000000     0.966550000000     0.450917   
Zn11     Zn     0.962980000000     0.461750000000     0.051630000000     0.454142   
Zn12     Zn     0.047630000000     0.552820000000     0.057560000000     0.452767   
Zn13     Zn     0.051030000000     0.460560000000     0.468810000000     0.454378   
Zn14     Zn     0.964780000000     0.460260000000     0.553300000000     0.450643   
Zn15     Zn     0.052400000000     0.551710000000     0.552190000000     0.449369   
Zn16     Zn     0.963930000000     0.551020000000     0.469590000000     0.454571   
Zn17     Zn     0.464660000000     0.963930000000     0.965880000000     0.46223    
Zn18     Zn     0.462670000000     0.048870000000     0.053010000000     0.45243    
Zn19     Zn     0.551940000000     0.963540000000     0.054200000000     0.455063   
Zn20     Zn     0.553000000000     0.048850000000     0.967340000000     0.459121   
Zn21     Zn     0.463190000000     0.049020000000     0.555320000000     0.460987   
Zn22     Zn     0.463060000000     0.963790000000     0.468040000000     0.455136   
Zn23     Zn     0.551440000000     0.049480000000     0.468000000000     0.454884   
Zn24     Zn     0.551330000000     0.964410000000     0.555390000000     0.461354   
Zn25     Zn     0.462070000000     0.549470000000     0.968790000000     0.451564   
Zn26     Zn     0.466020000000     0.461290000000     0.054450000000     0.453498   
Zn27     Zn     0.553240000000     0.464520000000     0.968510000000     0.451278   
Zn28     Zn     0.550360000000     0.553040000000     0.053470000000     0.455372   
Zn29     Zn     0.466690000000     0.552610000000     0.467920000000     0.455743   
Zn30     Zn     0.461950000000     0.464230000000     0.553550000000     0.451706   
Zn31     Zn     0.550280000000     0.460620000000     0.469190000000     0.455615   
Zn32     Zn     0.552710000000     0.549220000000     0.554500000000     0.451943   


