data_structure

_audit_creation_method RASPA-1.0
_audit_creation_date 2023-5-19
_audit_author_name 'Poobodin Mano'

_cell_length_a    25.8935
_cell_length_b    25.9369
_cell_length_c    25.8791
_cell_angle_alpha 90
_cell_angle_beta  90
_cell_angle_gamma 90
_cell_volume      17380.3

_symmetry_cell_setting          triclinic
_symmetry_space_group_name_Hall 'P 1'
_symmetry_space_group_name_H-M  'P 1'
_symmetry_Int_Tables_number     1

_symmetry_equiv_pos_as_xyz 'x,y,z'

loop_
_atom_site_label
_atom_site_type_symbol
_atom_site_fract_x
_atom_site_fract_y
_atom_site_fract_z
_atom_site_charge
C1       C      0.855720000000     0.004810000000     0.998300000000     0.365594   
C2       C      0.999310000000     0.998560000000     0.145160000000     0.367871   
C3       C      0.998420000000     0.857920000000     0.001460000000     0.364267   
C4       C      0.143710000000     0.998880000000     0.998440000000     0.383911   
C5       C      0.002470000000     0.141780000000     0.002500000000     0.366682   
C6       C      0.999040000000     0.999930000000     0.857440000000     0.372263   
C7       C      0.997020000000     0.142370000000     0.498490000000     0.367841   
C8       C      0.998920000000     0.997000000000     0.359560000000     0.376045   
C9       C      0.142520000000     0.000870000000     0.504610000000     0.381657   
C10      C      0.999660000000     0.856240000000     0.502170000000     0.368321   
C11      C      0.854820000000     0.998180000000     0.505150000000     0.381848   
C12      C      0.999180000000     0.001190000000     0.643490000000     0.378346   
C13      C      0.002900000000     0.355530000000     0.000910000000     0.380165   
C14      C      0.000260000000     0.499900000000     0.145350000000     0.363963   
C15      C      0.142460000000     0.499260000000     0.000510000000     0.374999   
C16      C      0.999570000000     0.643770000000     0.001600000000     0.378192   
C17      C      0.857730000000     0.495940000000     0.001180000000     0.375067   
C18      C      0.998720000000     0.500530000000     0.856430000000     0.364848   
C19      C      0.997310000000     0.354620000000     0.499220000000     0.382263   
C20      C      0.000010000000     0.500700000000     0.358830000000     0.372294   
C21      C      0.855520000000     0.499470000000     0.501090000000     0.365467   
C22      C      0.998770000000     0.643930000000     0.501240000000     0.382819   
C23      C      0.142550000000     0.498190000000     0.501810000000     0.366021   
C24      C      0.998350000000     0.500260000000     0.642910000000     0.372528   
C25      C      0.356840000000     0.001150000000     0.997640000000     0.365025   
C26      C      0.500910000000     0.994270000000     0.143740000000     0.369803   
C27      C      0.502310000000     0.857350000000     0.003480000000     0.361313   
C28      C      0.642820000000     0.008100000000     0.995580000000     0.383363   
C29      C      0.496710000000     0.142580000000     0.003360000000     0.364069   
C30      C      0.497550000000     0.995870000000     0.856780000000     0.36749    
C31      C      0.356360000000     0.000260000000     0.505080000000     0.369217   
C32      C      0.499080000000     0.996690000000     0.356600000000     0.379755   
C33      C      0.499750000000     0.141500000000     0.493930000000     0.367567   
C34      C      0.640950000000     0.998890000000     0.506170000000     0.369278   
C35      C      0.498300000000     0.856600000000     0.495230000000     0.369013   
C36      C      0.497470000000     0.998270000000     0.643630000000     0.384261   
C37      C      0.497720000000     0.355680000000     0.999960000000     0.375513   
C38      C      0.643280000000     0.494090000000     0.997930000000     0.364285   
C39      C      0.500090000000     0.503970000000     0.855290000000     0.365506   
C40      C      0.500940000000     0.644010000000     0.000270000000     0.380696   
C41      C      0.501880000000     0.503990000000     0.141720000000     0.378328   
C42      C      0.356910000000     0.496740000000     0.999060000000     0.366994   
C43      C      0.355430000000     0.498270000000     0.500010000000     0.385094   
C44      C      0.500420000000     0.355400000000     0.494690000000     0.380061   
C45      C      0.499910000000     0.501840000000     0.355920000000     0.366295   
C46      C      0.642730000000     0.499420000000     0.499860000000     0.385176   
C47      C      0.499230000000     0.500340000000     0.640580000000     0.375309   
C48      C      0.497640000000     0.643070000000     0.495810000000     0.382837   
C49      C      0.530810000000     0.535680000000     0.774240000000     0.0266556  
C50      C      0.467200000000     0.470870000000     0.776140000000    -0.0299849  
C51      C      0.530520000000     0.534200000000     0.720200000000     0.0388902  
C52      C      0.466890000000     0.468970000000     0.722120000000     0.205751   
C53      C      0.467180000000     0.533130000000     0.275720000000     0.0260695  
C54      C      0.536780000000     0.474640000000     0.276360000000    -0.0306519  
C55      C      0.468330000000     0.533950000000     0.221790000000     0.038543   
C56      C      0.538190000000     0.475290000000     0.222400000000     0.204714   
C57      C      0.530710000000     0.776600000000     0.526000000000     0.0258875  
C58      C      0.466170000000     0.777330000000     0.461810000000    -0.0309256  
C59      C      0.530070000000     0.722950000000     0.526200000000     0.0391308  
C60      C      0.465130000000     0.723400000000     0.461990000000     0.205848   
C61      C      0.468740000000     0.221640000000     0.526000000000     0.0265975  
C62      C      0.530550000000     0.220960000000     0.459240000000    -0.0302199  
C63      C      0.469340000000     0.275330000000     0.526210000000     0.0387381  
C64      C      0.531510000000     0.274990000000     0.459380000000     0.205141   
C65      C      0.547250000000     0.777210000000     0.005350000000     0.0255873  
C66      C      0.456260000000     0.778240000000     0.001960000000    -0.0301059  
C67      C      0.546640000000     0.723320000000     0.001690000000     0.0401507  
C68      C      0.455360000000     0.724250000000     0.002950000000     0.206558   
C69      C      0.491730000000     0.223020000000     0.047510000000     0.0275548  
C70      C      0.500000000000     0.221180000000     0.956750000000    -0.030054   
C71      C      0.494650000000     0.276950000000     0.046490000000     0.041017   
C72      C      0.498490000000     0.275130000000     0.955220000000     0.206787   
C73      C      0.493790000000     0.951280000000     0.776560000000     0.0261303  
C74      C      0.499020000000     0.042110000000     0.777980000000    -0.0310786  
C75      C      0.496110000000     0.952180000000     0.722600000000     0.0406423  
C76      C      0.496940000000     0.043390000000     0.724070000000     0.206954   
C77      C      0.545240000000     0.987810000000     0.223770000000     0.0271716  
C78      C      0.454690000000     0.998520000000     0.222500000000    -0.0301207  
C79      C      0.544790000000     0.991430000000     0.277640000000     0.0412678  
C80      C      0.453630000000     0.997920000000     0.276480000000     0.207167   
C81      C      0.775940000000     0.544190000000     0.494350000000     0.0259418  
C82      C      0.776330000000     0.454170000000     0.507960000000    -0.0305419  
C83      C      0.722040000000     0.544250000000     0.496760000000     0.0424085  
C84      C      0.722330000000     0.453400000000     0.505110000000     0.208301   
C85      C      0.222170000000     0.453270000000     0.495550000000     0.0266571  
C86      C      0.221800000000     0.543380000000     0.508490000000    -0.0294943  
C87      C      0.276110000000     0.453240000000     0.497780000000     0.0426525  
C88      C      0.275790000000     0.544140000000     0.505460000000     0.208305   
C89      C      0.723840000000     0.525120000000     0.966330000000     0.0252536  
C90      C      0.722730000000     0.460850000000     0.030560000000    -0.0310123  
C91      C      0.777690000000     0.525560000000     0.967580000000     0.0378155  
C92      C      0.776840000000     0.461460000000     0.032410000000     0.204192   
C93      C      0.276050000000     0.466120000000     0.967120000000     0.0268085  
C94      C      0.277790000000     0.527950000000     0.033710000000    -0.0298341  
C95      C      0.222080000000     0.467300000000     0.967570000000     0.0381135  
C96      C      0.223800000000     0.528940000000     0.034770000000     0.204121   
C97      C      0.001910000000     0.455500000000     0.776580000000     0.0275234  
C98      C      0.994020000000     0.546130000000     0.776930000000    -0.0291531  
C99      C      0.999260000000     0.455500000000     0.722600000000     0.04172    
C100     C      0.996040000000     0.546600000000     0.722750000000     0.206433   
C101     C      0.997160000000     0.455220000000     0.225400000000     0.0258324  
C102     C      0.003600000000     0.545960000000     0.224620000000    -0.0299932  
C103     C      0.999740000000     0.455540000000     0.279380000000     0.04016    
C104     C      0.001510000000     0.546690000000     0.278780000000     0.206322   
C105     C      0.044480000000     0.776650000000     0.497950000000     0.0270842  
C106     C      0.953600000000     0.777430000000     0.505710000000    -0.030047   
C107     C      0.044160000000     0.722890000000     0.500280000000     0.0429028  
C108     C      0.952810000000     0.723550000000     0.503530000000     0.208681   
C109     C      0.042160000000     0.221720000000     0.500610000000     0.0265151  
C110     C      0.951160000000     0.221370000000     0.494380000000    -0.0304891  
C111     C      0.042100000000     0.275440000000     0.498430000000     0.0416785  
C112     C      0.950710000000     0.275290000000     0.496860000000     0.206529   
C113     C      0.721030000000     0.030210000000     0.474240000000     0.0256629  
C114     C      0.720420000000     0.968760000000     0.541320000000    -0.0305936  
C115     C      0.774750000000     0.029560000000     0.473950000000     0.0385047  
C116     C      0.774470000000     0.968260000000     0.541550000000     0.204616   
C117     C      0.276230000000     0.968360000000     0.473950000000     0.0264989  
C118     C      0.276990000000     0.031880000000     0.539070000000    -0.0305834  
C119     C      0.222510000000     0.968880000000     0.473890000000     0.0393906  
C120     C      0.222950000000     0.032310000000     0.539490000000     0.205092   
C121     C      0.964320000000     0.777520000000     0.972470000000     0.0257494  
C122     C      0.033600000000     0.778540000000     0.031380000000    -0.0303486  
C123     C      0.964980000000     0.723670000000     0.972630000000     0.038358   
C124     C      0.034680000000     0.724590000000     0.031540000000     0.205383   
C125     C      0.970780000000     0.222130000000     0.033680000000     0.0260087  
C126     C      0.036800000000     0.220900000000     0.971070000000    -0.0312937  
C127     C      0.971140000000     0.275870000000     0.033000000000     0.0384927  
C128     C      0.037530000000     0.274820000000     0.970340000000     0.204301   
C129     C      0.776520000000     0.003170000000     0.951580000000     0.0257727  
C130     C      0.776010000000     0.014920000000     0.042010000000    -0.0308623  
C131     C      0.722580000000     0.007260000000     0.950780000000     0.0413249  
C132     C      0.722020000000     0.014020000000     0.041940000000     0.207797   
C133     C      0.277190000000     0.005010000000     0.042700000000     0.026409   
C134     C      0.277430000000     0.996030000000     0.951950000000    -0.0293481  
C135     C      0.223360000000     0.001500000000     0.042920000000     0.0414073  
C136     C      0.223300000000     0.997570000000     0.951610000000     0.207043   
C137     C      0.969970000000     0.966060000000     0.777130000000     0.0264912  
C138     C      0.028480000000     0.035650000000     0.778200000000    -0.0300721  
C139     C      0.970260000000     0.966680000000     0.723300000000     0.038083   
C140     C      0.028600000000     0.036800000000     0.724250000000     0.204697   
C141     C      0.967330000000     0.029670000000     0.225610000000     0.0254594  
C142     C      0.030760000000     0.964600000000     0.224610000000    -0.0309088  
C143     C      0.967420000000     0.028960000000     0.279510000000     0.037985   
C144     C      0.030870000000     0.963490000000     0.278680000000     0.204763   
H1       H      0.556340000000     0.560270000000     0.700090000000     0.046415   
H2       H      0.556820000000     0.562500000000     0.793080000000     0.0484661  
H3       H      0.441400000000     0.444970000000     0.796570000000     0.0761401  
H4       H      0.453900000000     0.402240000000     0.695410000000     0.16103    
H5       H      0.440180000000     0.557930000000     0.202170000000     0.0455975  
H6       H      0.438510000000     0.556700000000     0.295070000000     0.0507105  
H7       H      0.564780000000     0.450730000000     0.296320000000     0.0748901  
H8       H      0.605580000000     0.468980000000     0.194690000000     0.15823    
H9       H      0.556340000000     0.703540000000     0.552410000000     0.0459373  
H10      H      0.557230000000     0.795770000000     0.552130000000     0.0492229  
H11      H      0.440180000000     0.797380000000     0.435780000000     0.073526   
H12      H      0.398840000000     0.695450000000     0.448880000000     0.160571   
H13      H      0.444160000000     0.294680000000     0.553520000000     0.046757   
H14      H      0.443340000000     0.202470000000     0.553220000000     0.0499679  
H15      H      0.555450000000     0.200920000000     0.432160000000     0.0722197  
H16      H      0.597140000000     0.303050000000     0.443540000000     0.160391   
H17      H      0.583310000000     0.703080000000     0.001190000000     0.0415043  
H18      H      0.584300000000     0.796680000000     0.006520000000     0.0457481  
H19      H      0.419670000000     0.798640000000     0.001250000000     0.0720029  
H20      H      0.397950000000     0.695620000000     0.038030000000     0.163897   
H21      H      0.492900000000     0.297630000000     0.082890000000     0.045349   
H22      H      0.488770000000     0.203820000000     0.084630000000     0.0474697  
H23      H      0.502740000000     0.200410000000     0.920450000000     0.0708594  
H24      H      0.538970000000     0.304270000000     0.901710000000     0.157663   
H25      H      0.495350000000     0.915700000000     0.702100000000     0.0426725  
H26      H      0.492190000000     0.914230000000     0.795930000000     0.0471594  
H27      H      0.500780000000     0.078520000000     0.798570000000     0.0713061  
H28      H      0.462610000000     0.101670000000     0.696430000000     0.162853   
H29      H      0.581280000000     0.988870000000     0.298090000000     0.0425107  
H30      H      0.582110000000     0.983750000000     0.204290000000     0.0473504  
H31      H      0.418370000000     0.002120000000     0.201880000000     0.0701526  
H32      H      0.401660000000     0.040380000000     0.305520000000     0.157068   
H33      H      0.701910000000     0.580740000000     0.492810000000     0.0419062  
H34      H      0.795810000000     0.580690000000     0.489460000000     0.0502476  
H35      H      0.796660000000     0.417940000000     0.513160000000     0.0731664  
H36      H      0.693950000000     0.393120000000     0.475140000000     0.162351   
H37      H      0.296250000000     0.416750000000     0.494010000000     0.0417533  
H38      H      0.202290000000     0.416750000000     0.490950000000     0.0460386  
H39      H      0.201520000000     0.579660000000     0.513470000000     0.0700973  
H40      H      0.303940000000     0.604310000000     0.475050000000     0.161649   
H41      H      0.797260000000     0.551950000000     0.941640000000     0.0454239  
H42      H      0.704800000000     0.551160000000     0.939650000000     0.0481465  
H43      H      0.702510000000     0.434640000000     0.056210000000     0.0733004  
H44      H      0.803890000000     0.447910000000     0.099010000000     0.160264   
H45      H      0.202060000000     0.442480000000     0.940460000000     0.0475196  
H46      H      0.294940000000     0.440700000000     0.939750000000     0.0504491  
H47      H      0.298170000000     0.552760000000     0.060610000000     0.0732164  
H48      H      0.196070000000     0.540610000000     0.101460000000     0.159993   
H49      H      0.000970000000     0.418780000000     0.702570000000     0.0442068  
H50      H      0.004690000000     0.418760000000     0.796410000000     0.0499541  
H51      H      0.991350000000     0.582650000000     0.797200000000     0.0698261  
H52      H      0.956230000000     0.599560000000     0.691900000000     0.154928   
H53      H      0.998590000000     0.418910000000     0.299590000000     0.0410335  
H54      H      0.995030000000     0.418340000000     0.205740000000     0.045488   
H55      H      0.005740000000     0.582430000000     0.204170000000     0.0731793  
H56      H      0.040390000000     0.600460000000     0.309390000000     0.156666   
H57      H      0.080800000000     0.702680000000     0.498490000000     0.0424181  
H58      H      0.081380000000     0.796290000000     0.495380000000     0.0468944  
H59      H      0.917110000000     0.797840000000     0.508430000000     0.0730498  
H60      H      0.899590000000     0.692960000000     0.543320000000     0.155892   
H61      H      0.078900000000     0.295430000000     0.499670000000     0.0420778  
H62      H      0.079010000000     0.201900000000     0.502600000000     0.0495285  
H63      H      0.914550000000     0.201100000000     0.492320000000     0.0691148  
H64      H      0.896990000000     0.306520000000     0.458290000000     0.154576   
H65      H      0.794110000000     0.054430000000     0.446390000000     0.0454036  
H66      H      0.701780000000     0.055390000000     0.446890000000     0.0489584  
H67      H      0.700390000000     0.944020000000     0.568530000000     0.0723368  
H68      H      0.803540000000     0.957570000000     0.607820000000     0.159074   
H69      H      0.203090000000     0.943140000000     0.447190000000     0.0487192  
H70      H      0.295410000000     0.942350000000     0.447340000000     0.0519493  
H71      H      0.297090000000     0.057470000000     0.565420000000     0.0721749  
H72      H      0.194140000000     0.045050000000     0.605520000000     0.164216   
H73      H      0.936830000000     0.704000000000     0.948670000000     0.0451932  
H74      H      0.935880000000     0.796640000000     0.948410000000     0.0481762  
H75      H      0.061540000000     0.798610000000     0.055280000000     0.0742191  
H76      H      0.101820000000     0.696810000000     0.039720000000     0.165098   
H77      H      0.944190000000     0.295560000000     0.058290000000     0.0482969  
H78      H      0.943740000000     0.203110000000     0.059390000000     0.0494557  
H79      H      0.063480000000     0.200700000000     0.945880000000     0.0724404  
H80      H      0.103900000000     0.303110000000     0.958550000000     0.158758   
H81      H      0.702770000000     0.004290000000     0.913960000000     0.0409492  
H82      H      0.796750000000     0.998250000000     0.915210000000     0.0458132  
H83      H      0.795780000000     0.018740000000     0.078790000000     0.069939   
H84      H      0.692550000000     0.984380000000     0.102020000000     0.163088   
H85      H      0.203440000000     0.003250000000     0.079770000000     0.0425183  
H86      H      0.297050000000     0.008330000000     0.079460000000     0.0471109  
H87      H      0.297650000000     0.992960000000     0.915350000000     0.0701039  
H88      H      0.194000000000     0.029610000000     0.892770000000     0.163921   
H89      H      0.946490000000     0.938400000000     0.703630000000     0.0462936  
H90      H      0.946130000000     0.937490000000     0.796280000000     0.0481662  
H91      H      0.052180000000     0.063660000000     0.798380000000     0.0734599  
H92      H      0.036500000000     0.103860000000     0.696400000000     0.161455   
H93      H      0.941590000000     0.055410000000     0.299130000000     0.045518   
H94      H      0.941480000000     0.056450000000     0.206450000000     0.0482765  
H95      H      0.056490000000     0.938430000000     0.204460000000     0.073471   
H96      H      0.043260000000     0.897140000000     0.306590000000     0.16105    
N1       N      0.499300000000     0.503840000000     0.802190000000    -0.153119   
N2       N      0.498710000000     0.500920000000     0.693870000000    -0.191616   
N3       N      0.501180000000     0.503180000000     0.302950000000    -0.15359    
N4       N      0.503200000000     0.504530000000     0.194890000000    -0.193413   
N5       N      0.498570000000     0.803780000000     0.494070000000    -0.154699   
N6       N      0.497340000000     0.696070000000     0.494440000000    -0.193879   
N7       N      0.499550000000     0.194410000000     0.492770000000    -0.154103   
N8       N      0.500660000000     0.302330000000     0.493150000000    -0.192901   
N9       N      0.502050000000     0.804510000000     0.004090000000    -0.15316    
N10      N      0.500820000000     0.696880000000     0.001560000000    -0.194022   
N11      N      0.495880000000     0.195370000000     0.002720000000    -0.153306   
N12      N      0.496820000000     0.302870000000     0.000390000000    -0.193479   
N13      N      0.496590000000     0.996220000000     0.803990000000    -0.154809   
N14      N      0.496720000000     0.998140000000     0.696480000000    -0.195546   
N15      N      0.500330000000     0.992900000000     0.196480000000    -0.154973   
N16      N      0.499010000000     0.995380000000     0.303830000000    -0.195217   
N17      N      0.802790000000     0.499290000000     0.501120000000    -0.153667   
N18      N      0.695460000000     0.498830000000     0.500640000000    -0.19601    
N19      N      0.195310000000     0.498220000000     0.502010000000    -0.154222   
N20      N      0.302690000000     0.498700000000     0.501160000000    -0.195174   
N21      N      0.696320000000     0.493040000000     0.998030000000    -0.153986   
N22      N      0.804520000000     0.494100000000     0.000680000000    -0.191983   
N23      N      0.303880000000     0.496690000000     0.999980000000    -0.153756   
N24      N      0.195680000000     0.498730000000     0.001150000000    -0.191962   
N25      N      0.998190000000     0.500730000000     0.803540000000    -0.153474   
N26      N      0.997900000000     0.500980000000     0.695810000000    -0.192847   
N27      N      0.000270000000     0.500360000000     0.198230000000    -0.153819   
N28      N      0.000410000000     0.501180000000     0.305930000000    -0.193356   
N29      N      0.999280000000     0.803620000000     0.501860000000    -0.154452   
N30      N      0.998390000000     0.696560000000     0.501630000000    -0.195403   
N31      N      0.996760000000     0.194970000000     0.497630000000    -0.154801   
N32      N      0.996480000000     0.302020000000     0.498210000000    -0.196162   
N33      N      0.693860000000     0.999450000000     0.507530000000    -0.154732   
N34      N      0.801750000000     0.998420000000     0.507150000000    -0.194024   
N35      N      0.303460000000     0.000090000000     0.506250000000    -0.15478    
N36      N      0.195590000000     0.000940000000     0.506260000000    -0.193501   
N37      N      0.998670000000     0.804960000000     0.001800000000    -0.153267   
N38      N      0.999970000000     0.696920000000     0.002100000000    -0.192492   
N39      N      0.003420000000     0.194650000000     0.002540000000    -0.154346   
N40      N      0.004120000000     0.302480000000     0.001190000000    -0.193293   
N41      N      0.802970000000     0.007580000000     0.997180000000    -0.154241   
N42      N      0.695530000000     0.010620000000     0.996050000000    -0.195341   
N43      N      0.304030000000     0.001080000000     0.997320000000    -0.154203   
N44      N      0.196520000000     0.999150000000     0.997440000000    -0.195086   
N45      N      0.999150000000     0.000480000000     0.804520000000    -0.155323   
N46      N      0.999530000000     0.001840000000     0.696610000000    -0.193382   
N47      N      0.999100000000     0.997620000000     0.198180000000    -0.154627   
N48      N      0.999250000000     0.996200000000     0.306340000000    -0.192534   
O1       O      0.999510000000     0.999860000000     0.001110000000    -0.368396   
O2       O      0.879560000000     0.977740000000     0.964760000000    -0.295811   
O3       O      0.969700000000     0.029550000000     0.121000000000    -0.298623   
O4       O      0.031230000000     0.882600000000     0.028880000000    -0.293604   
O5       O      0.880540000000     0.029020000000     0.033290000000    -0.295246   
O6       O      0.965660000000     0.882170000000     0.973580000000    -0.294926   
O7       O      0.029220000000     0.968490000000     0.120210000000    -0.297131   
O8       O      0.118660000000     0.023770000000     0.964230000000    -0.294743   
O9       O      0.970650000000     0.117820000000     0.031590000000    -0.29698    
O10      O      0.120020000000     0.974630000000     0.034200000000    -0.297107   
O11      O      0.033090000000     0.116890000000     0.972970000000    -0.298124   
O12      O      0.026950000000     0.031910000000     0.882160000000    -0.298408   
O13      O      0.971060000000     0.967590000000     0.881700000000    -0.298847   
O14      O      0.998600000000     0.999320000000     0.501550000000    -0.372698   
O15      O      0.031810000000     0.118870000000     0.524100000000    -0.29443    
O16      O      0.968480000000     0.027680000000     0.383430000000    -0.299062   
O17      O      0.118950000000     0.971340000000     0.473080000000    -0.299386   
O18      O      0.962370000000     0.117380000000     0.474030000000    -0.296839   
O19      O      0.116820000000     0.030150000000     0.534420000000    -0.287677   
O20      O      0.029040000000     0.967410000000     0.384940000000    -0.28586    
O21      O      0.964990000000     0.880520000000     0.527230000000    -0.294773   
O22      O      0.878300000000     0.026240000000     0.472210000000    -0.302622   
O23      O      0.034570000000     0.880480000000     0.477350000000    -0.296285   
O24      O      0.880580000000     0.970100000000     0.536050000000    -0.290941   
O25      O      0.972310000000     0.967460000000     0.619640000000    -0.301019   
O26      O      0.025650000000     0.034050000000     0.618180000000    -0.288425   
O27      O      0.999970000000     0.499510000000     0.000790000000    -0.368005   
O28      O      0.032380000000     0.380850000000     0.970850000000    -0.288581   
O29      O      0.975480000000     0.464880000000     0.121200000000    -0.295031   
O30      O      0.117560000000     0.527370000000     0.032460000000    -0.285697   
O31      O      0.972010000000     0.379460000000     0.030820000000    -0.298938   
O32      O      0.118060000000     0.471380000000     0.967910000000    -0.297481   
O33      O      0.025140000000     0.534450000000     0.120630000000    -0.291451   
O34      O      0.967230000000     0.619610000000     0.973340000000    -0.299403   
O35      O      0.883200000000     0.467570000000     0.032430000000    -0.285372   
O36      O      0.031370000000     0.618580000000     0.029340000000    -0.284965   
O37      O      0.881520000000     0.526150000000     0.970160000000    -0.29791    
O38      O      0.973560000000     0.534830000000     0.881300000000    -0.293386   
O39      O      0.024380000000     0.466010000000     0.880400000000    -0.290742   
O40      O      0.998990000000     0.499230000000     0.500830000000    -0.368255   
O41      O      0.963720000000     0.379030000000     0.525430000000    -0.287002   
O42      O      0.025570000000     0.465990000000     0.382950000000    -0.296805   
O43      O      0.879720000000     0.531210000000     0.472290000000    -0.291471   
O44      O      0.032060000000     0.378750000000     0.474290000000    -0.302439   
O45      O      0.879920000000     0.467750000000     0.529750000000    -0.291448   
O46      O      0.973720000000     0.534570000000     0.383310000000    -0.280589   
O47      O      0.034000000000     0.619760000000     0.525430000000    -0.29866    
O48      O      0.118320000000     0.466180000000     0.473310000000    -0.295833   
O49      O      0.964070000000     0.619530000000     0.476560000000    -0.28485    
O50      O      0.118150000000     0.530580000000     0.529720000000    -0.292766   
O51      O      0.024020000000     0.534520000000     0.618310000000    -0.280745   
O52      O      0.973320000000     0.465090000000     0.618900000000    -0.294141   
O53      O      0.499980000000     0.999940000000     0.000390000000    -0.368781   
O54      O      0.381500000000     0.975060000000     0.963860000000    -0.292468   
O55      O      0.466960000000     0.020820000000     0.120150000000    -0.298313   
O56      O      0.539640000000     0.882200000000     0.024270000000    -0.292665   
O57      O      0.380860000000     0.026140000000     0.032640000000    -0.295631   
O58      O      0.465260000000     0.881240000000     0.981380000000    -0.292968   
O59      O      0.535690000000     0.969980000000     0.118730000000    -0.294302   
O60      O      0.616970000000     0.031900000000     0.960890000000    -0.293994   
O61      O      0.471910000000     0.117760000000     0.038160000000    -0.290752   
O62      O      0.620160000000     0.981090000000     0.029790000000    -0.298184   
O63      O      0.521940000000     0.118720000000     0.968420000000    -0.294487   
O64      O      0.519010000000     0.033100000000     0.880530000000    -0.29886    
O65      O      0.476660000000     0.958970000000     0.881820000000    -0.294493   
O66      O      0.498780000000     0.998940000000     0.500070000000    -0.37193    
O67      O      0.381720000000     0.030660000000     0.534440000000    -0.297401   
O68      O      0.462510000000     0.975150000000     0.381460000000    -0.286581   
O69      O      0.529190000000     0.116070000000     0.463560000000    -0.294624   
O70      O      0.379910000000     0.970400000000     0.473940000000    -0.29865    
O71      O      0.471030000000     0.118010000000     0.526240000000    -0.298041   
O72      O      0.535820000000     0.019200000000     0.380400000000    -0.300243   
O73      O      0.615700000000     0.969000000000     0.536160000000    -0.29551    
O74      O      0.467610000000     0.881800000000     0.466040000000    -0.29595    
O75      O      0.617360000000     0.027610000000     0.473970000000    -0.300301   
O76      O      0.528120000000     0.880210000000     0.526400000000    -0.300648   
O77      O      0.520040000000     0.961820000000     0.619520000000    -0.30033    
O78      O      0.475520000000     0.034690000000     0.618940000000    -0.294277   
O79      O      0.500230000000     0.499920000000     0.998470000000    -0.367539   
O80      O      0.474770000000     0.380260000000     0.963940000000    -0.283598   
O81      O      0.617870000000     0.463980000000     0.027630000000    -0.29337    
O82      O      0.530330000000     0.534350000000     0.879830000000    -0.292157   
O83      O      0.521650000000     0.379880000000     0.035550000000    -0.294651   
O84      O      0.470980000000     0.472810000000     0.879870000000    -0.294048   
O85      O      0.619660000000     0.526210000000     0.969020000000    -0.297886   
O86      O      0.465690000000     0.619040000000     0.023860000000    -0.291861   
O87      O      0.531030000000     0.473270000000     0.116890000000    -0.288925   
O88      O      0.536560000000     0.620140000000     0.975890000000    -0.296412   
O89      O      0.470610000000     0.533290000000     0.117310000000    -0.29989    
O90      O      0.381540000000     0.527150000000     0.028890000000    -0.296194   
O91      O      0.381360000000     0.467070000000     0.968140000000    -0.292608   
O92      O      0.499100000000     0.499400000000     0.498160000000    -0.369721   
O93      O      0.379370000000     0.532700000000     0.474370000000    -0.295137   
O94      O      0.472190000000     0.378930000000     0.527520000000    -0.299632   
O95      O      0.532780000000     0.474460000000     0.380470000000    -0.294664   
O96      O      0.380070000000     0.463270000000     0.524340000000    -0.294331   
O97      O      0.465990000000     0.528010000000     0.380320000000    -0.294964   
O98      O      0.528280000000     0.381150000000     0.463510000000    -0.287414   
O99      O      0.618450000000     0.534760000000     0.524000000000    -0.298583   
O100     O      0.469160000000     0.470100000000     0.615760000000    -0.282921   
O101     O      0.618460000000     0.465030000000     0.474460000000    -0.295355   
O102     O      0.529830000000     0.530300000000     0.616030000000    -0.296432   
O103     O      0.527350000000     0.619490000000     0.527190000000    -0.301312   
O104     O      0.468430000000     0.617480000000     0.465820000000    -0.289024   
O105     O      0.433880000000     0.434670000000     0.698770000000    -0.272255   
O106     O      0.575210000000     0.445940000000     0.198310000000    -0.272674   
O107     O      0.431390000000     0.699170000000     0.429000000000    -0.274892   
O108     O      0.563800000000     0.299280000000     0.425020000000    -0.274043   
O109     O      0.408340000000     0.699780000000     0.001370000000    -0.277379   
O110     O      0.501530000000     0.299300000000     0.908090000000    -0.276219   
O111     O      0.499080000000     0.090450000000     0.699800000000    -0.279127   
O112     O      0.406860000000     0.002750000000     0.301080000000    -0.275614   
O113     O      0.697120000000     0.407130000000     0.510660000000    -0.281477   
O114     O      0.300970000000     0.590470000000     0.510660000000    -0.280671   
O115     O      0.800850000000     0.428390000000     0.066190000000    -0.274108   
O116     O      0.200340000000     0.561370000000     0.069550000000    -0.273362   
O117     O      0.993570000000     0.593130000000     0.697510000000    -0.275253   
O118     O      0.003170000000     0.593370000000     0.303790000000    -0.273873   
O119     O      0.906060000000     0.698610000000     0.505960000000    -0.275188   
O120     O      0.904100000000     0.300560000000     0.495470000000    -0.276477   
O121     O      0.798830000000     0.936410000000     0.576240000000    -0.274813   
O122     O      0.198660000000     0.065200000000     0.573250000000    -0.273204   
O123     O      0.070910000000     0.700710000000     0.062030000000    -0.272755   
O124     O      0.071980000000     0.298690000000     0.937830000000    -0.274108   
O125     O      0.696460000000     0.019800000000     0.088110000000    -0.281984   
O126     O      0.198020000000     0.993630000000     0.905110000000    -0.279128   
O127     O      0.058930000000     0.073100000000     0.700300000000    -0.273877   
O128     O      0.063560000000     0.929350000000     0.302680000000    -0.273935   
Zn1      Zn     0.954970000000     0.957740000000     0.956980000000     0.455054   
Zn2      Zn     0.956300000000     0.042680000000     0.045550000000     0.456324   
Zn3      Zn     0.044110000000     0.957730000000     0.044720000000     0.456674   
Zn4      Zn     0.043320000000     0.041840000000     0.956780000000     0.46075    
Zn5      Zn     0.041620000000     0.044450000000     0.543150000000     0.465668   
Zn6      Zn     0.953240000000     0.041440000000     0.458790000000     0.456443   
Zn7      Zn     0.044020000000     0.955870000000     0.460410000000     0.460648   
Zn8      Zn     0.955740000000     0.955450000000     0.544790000000     0.462499   
Zn9      Zn     0.042420000000     0.456080000000     0.955950000000     0.458057   
Zn10     Zn     0.958920000000     0.454420000000     0.045280000000     0.457364   
Zn11     Zn     0.042290000000     0.543510000000     0.044700000000     0.459808   
Zn12     Zn     0.956730000000     0.543890000000     0.957560000000     0.452828   
Zn13     Zn     0.955500000000     0.454160000000     0.542960000000     0.455969   
Zn14     Zn     0.042520000000     0.453990000000     0.458840000000     0.453148   
Zn15     Zn     0.955410000000     0.544570000000     0.459120000000     0.458306   
Zn16     Zn     0.042540000000     0.544550000000     0.542560000000     0.456546   
Zn17     Zn     0.457100000000     0.955070000000     0.957970000000     0.452976   
Zn18     Zn     0.456290000000     0.040600000000     0.046340000000     0.455765   
Zn19     Zn     0.547420000000     0.958920000000     0.041980000000     0.45496    
Zn20     Zn     0.538910000000     0.044440000000     0.954090000000     0.457244   
Zn21     Zn     0.458010000000     0.044230000000     0.543750000000     0.460328   
Zn22     Zn     0.453650000000     0.957800000000     0.456620000000     0.462636   
Zn23     Zn     0.543670000000     0.039470000000     0.455470000000     0.458104   
Zn24     Zn     0.539510000000     0.954010000000     0.544430000000     0.460035   
Zn25     Zn     0.457940000000     0.456070000000     0.954110000000     0.457625   
Zn26     Zn     0.541530000000     0.455210000000     0.042850000000     0.458628   
Zn27     Zn     0.545200000000     0.544290000000     0.956770000000     0.452476   
Zn28     Zn     0.455960000000     0.543620000000     0.040950000000     0.45755    
Zn29     Zn     0.454270000000     0.542530000000     0.455870000000     0.462331   
Zn30     Zn     0.456290000000     0.454050000000     0.540310000000     0.458636   
Zn31     Zn     0.543430000000     0.456470000000     0.455390000000     0.460919   
Zn32     Zn     0.542550000000     0.544600000000     0.540200000000     0.457538   


