data_structure

_audit_creation_method RASPA-1.0
_audit_creation_date 2023-5-19
_audit_author_name 'Poobodin Mano'

_cell_length_a    25.8888
_cell_length_b    25.8549
_cell_length_c    25.9528
_cell_angle_alpha 90
_cell_angle_beta  90
_cell_angle_gamma 90
_cell_volume      17371.6

_symmetry_cell_setting          triclinic
_symmetry_space_group_name_Hall 'P 1'
_symmetry_space_group_name_H-M  'P 1'
_symmetry_Int_Tables_number     1

_symmetry_equiv_pos_as_xyz 'x,y,z'

loop_
_atom_site_label
_atom_site_type_symbol
_atom_site_fract_x
_atom_site_fract_y
_atom_site_fract_z
_atom_site_charge
C1       C      0.995390000000     0.141820000000     0.996550000000     0.369377   
C2       C      0.854190000000     0.994620000000     0.996910000000     0.367044   
C3       C      0.996950000000     0.000050000000     0.852720000000     0.366769   
C4       C      0.998140000000     0.854010000000     0.992790000000     0.370097   
C5       C      0.000440000000     0.996990000000     0.137870000000     0.367396   
C6       C      0.140940000000     0.997120000000     0.995230000000     0.366968   
C7       C      0.001410000000     0.995050000000     0.352260000000     0.365823   
C8       C      0.144910000000     0.997390000000     0.495400000000     0.367307   
C9       C      0.998190000000     0.137750000000     0.495290000000     0.369401   
C10      C      0.000520000000     0.997180000000     0.638290000000     0.36585    
C11      C      0.001950000000     0.851800000000     0.497370000000     0.364748   
C12      C      0.856960000000     0.995260000000     0.495190000000     0.368267   
C13      C      0.992050000000     0.354820000000     0.998570000000     0.370281   
C14      C      0.137460000000     0.501010000000     0.997770000000     0.367627   
C15      C      0.993650000000     0.490840000000     0.853380000000     0.366119   
C16      C      0.996190000000     0.640940000000     0.991970000000     0.373207   
C17      C      0.995020000000     0.496160000000     0.139560000000     0.37079    
C18      C      0.852060000000     0.505250000000     0.000370000000     0.370607   
C19      C      0.997520000000     0.351300000000     0.494460000000     0.365851   
C20      C      0.996200000000     0.495110000000     0.353660000000     0.366855   
C21      C      0.851900000000     0.492100000000     0.492690000000     0.367969   
C22      C      0.997300000000     0.637600000000     0.498700000000     0.360762   
C23      C      0.140250000000     0.496100000000     0.493960000000     0.371045   
C24      C      0.993760000000     0.490100000000     0.638970000000     0.367187   
C25      C      0.353880000000     0.000690000000     0.997530000000     0.371704   
C26      C      0.500020000000     0.995140000000     0.137950000000     0.364818   
C27      C      0.495160000000     0.855160000000     0.991940000000     0.373355   
C28      C      0.641160000000     0.997410000000     0.996120000000     0.371757   
C29      C      0.498040000000     0.142000000000     0.994250000000     0.369075   
C30      C      0.497200000000     0.997840000000     0.853830000000     0.367674   
C31      C      0.643970000000     0.999550000000     0.497610000000     0.370737   
C32      C      0.500010000000     0.853240000000     0.499250000000     0.362901   
C33      C      0.501100000000     0.995630000000     0.639870000000     0.371967   
C34      C      0.357940000000     0.000910000000     0.495830000000     0.370667   
C35      C      0.503120000000     0.990950000000     0.352250000000     0.368448   
C36      C      0.497180000000     0.139820000000     0.496940000000     0.36749    
C37      C      0.496930000000     0.499660000000     0.850250000000     0.367661   
C38      C      0.351840000000     0.500850000000     0.996990000000     0.371784   
C39      C      0.496420000000     0.356660000000     0.988200000000     0.368782   
C40      C      0.492920000000     0.498160000000     0.137460000000     0.370495   
C41      C      0.492910000000     0.641090000000     0.988660000000     0.374334   
C42      C      0.637550000000     0.502670000000     0.000700000000     0.368443   
C43      C      0.353480000000     0.495510000000     0.492110000000     0.365496   
C44      C      0.493750000000     0.353430000000     0.497600000000     0.364579   
C45      C      0.493530000000     0.499930000000     0.350390000000     0.366612   
C46      C      0.639060000000     0.488250000000     0.489640000000     0.370839   
C47      C      0.497080000000     0.501850000000     0.637650000000     0.371314   
C48      C      0.498150000000     0.639270000000     0.499500000000     0.366104   
C49      C      0.542000000000     0.496100000000     0.770430000000     0.0299207  
C50      C      0.451570000000     0.507470000000     0.771280000000     0.0167411  
C51      C      0.541850000000     0.499720000000     0.716700000000     0.0336399  
C52      C      0.450690000000     0.507290000000     0.717380000000     0.0708547  
C53      C      0.486700000000     0.544090000000     0.270170000000     0.0307923  
C54      C      0.498080000000     0.453590000000     0.271670000000     0.0172076  
C55      C      0.488880000000     0.543270000000     0.216360000000     0.0332554  
C56      C      0.496700000000     0.452040000000     0.217770000000     0.0707081  
C57      C      0.543850000000     0.772510000000     0.493480000000     0.0309055  
C58      C      0.454110000000     0.774170000000     0.508850000000     0.0171037  
C59      C      0.543290000000     0.718490000000     0.496210000000     0.0335347  
C60      C      0.452660000000     0.719950000000     0.507920000000     0.0711884  
C61      C      0.499610000000     0.273460000000     0.453170000000     0.0314328  
C62      C      0.487080000000     0.273860000000     0.543200000000     0.0183134  
C63      C      0.498060000000     0.219500000000     0.453110000000     0.0338822  
C64      C      0.489830000000     0.219620000000     0.543960000000     0.0703459  
C65      C      0.525980000000     0.774060000000     0.021430000000     0.0315488  
C66      C      0.462250000000     0.777000000000     0.956740000000     0.0169289  
C67      C      0.525030000000     0.720430000000     0.019920000000     0.03063    
C68      C      0.460910000000     0.722950000000     0.954860000000     0.0689178  
C69      C      0.467340000000     0.223200000000     0.024470000000     0.0307653  
C70      C      0.527310000000     0.220520000000     0.956400000000     0.0167475  
C71      C      0.467000000000     0.276980000000     0.021980000000     0.0299173  
C72      C      0.527220000000     0.274630000000     0.953430000000     0.0680437  
C73      C      0.466140000000     0.966190000000     0.773320000000     0.0308309  
C74      C      0.532340000000     0.028480000000     0.775100000000     0.0169618  
C75      C      0.468100000000     0.965640000000     0.719590000000     0.0299493  
C76      C      0.534470000000     0.028560000000     0.721270000000     0.0679081  
C77      C      0.469910000000     0.024770000000     0.219410000000     0.0309921  
C78      C      0.533340000000     0.959740000000     0.216000000000     0.0170937  
C79      C      0.471150000000     0.023070000000     0.273050000000     0.0299154  
C80      C      0.534850000000     0.957580000000     0.270030000000     0.0678639  
C81      C      0.772490000000     0.497610000000     0.446680000000     0.0308657  
C82      C      0.772290000000     0.478470000000     0.535610000000     0.0174383  
C83      C      0.718620000000     0.493130000000     0.445670000000     0.034309   
C84      C      0.718280000000     0.477950000000     0.535660000000     0.0723345  
C85      C      0.273820000000     0.486940000000     0.536520000000     0.030497   
C86      C      0.273930000000     0.505300000000     0.447470000000     0.0170959  
C87      C      0.219990000000     0.489960000000     0.537090000000     0.0336719  
C88      C      0.219780000000     0.504340000000     0.446990000000     0.0710263  
C89      C      0.718390000000     0.472490000000     0.969870000000     0.030854   
C90      C      0.716380000000     0.536400000000     0.034370000000     0.0174487  
C91      C      0.772030000000     0.473980000000     0.969910000000     0.0298919  
C92      C      0.770590000000     0.538300000000     0.034740000000     0.0681966  
C93      C      0.217960000000     0.470000000000     0.029610000000     0.030881   
C94      C      0.216560000000     0.536910000000     0.968170000000     0.0169912  
C95      C      0.271790000000     0.470480000000     0.029040000000     0.030428   
C96      C      0.270590000000     0.538150000000     0.967610000000     0.0683741  
C97      C      0.026730000000     0.519710000000     0.772830000000     0.0308598  
C98      C      0.960210000000     0.457810000000     0.774310000000     0.0174304  
C99      C      0.026010000000     0.519400000000     0.719140000000     0.0299443  
C100     C      0.959140000000     0.457090000000     0.720200000000     0.0676885  
C101     C      0.024840000000     0.461520000000     0.273040000000     0.0307479  
C102     C      0.964650000000     0.529650000000     0.274910000000     0.0164469  
C103     C      0.023970000000     0.462190000000     0.219290000000     0.0298505  
C104     C      0.963040000000     0.530420000000     0.221030000000     0.068452   
C105     C      0.954790000000     0.718920000000     0.491360000000     0.0306314  
C106     C      0.044540000000     0.716220000000     0.506410000000     0.0172491  
C107     C      0.956140000000     0.772990000000     0.493330000000     0.0331681  
C108     C      0.046820000000     0.770480000000     0.504280000000     0.0704692  
C109     C      0.042270000000     0.271290000000     0.488190000000     0.0315743  
C110     C      0.952100000000     0.271860000000     0.501320000000     0.017956   
C111     C      0.042230000000     0.217340000000     0.490880000000     0.0342719  
C112     C      0.951240000000     0.217700000000     0.500170000000     0.0713032  
C113     C      0.776670000000     0.001350000000     0.451500000000     0.0306556  
C114     C      0.778350000000     0.993250000000     0.542050000000     0.0174894  
C115     C      0.722780000000     0.000530000000     0.452480000000     0.0338695  
C116     C      0.724380000000     0.996860000000     0.543620000000     0.0712609  
C117     C      0.225070000000     0.991990000000     0.451090000000     0.0306509  
C118     C      0.223820000000     0.008150000000     0.540580000000     0.0174206  
C119     C      0.278890000000     0.995900000000     0.451210000000     0.0338281  
C120     C      0.277890000000     0.008080000000     0.541640000000     0.0714778  
C121     C      0.005730000000     0.773820000000     0.036300000000     0.0311551  
C122     C      0.989580000000     0.775180000000     0.946790000000     0.0177646  
C123     C      0.002890000000     0.720030000000     0.035960000000     0.0335005  
C124     C      0.990530000000     0.721050000000     0.945500000000     0.0706204  
C125     C      0.037840000000     0.222520000000     0.987280000000     0.0316943  
C126     C      0.948980000000     0.220110000000     0.007620000000     0.0183254  
C127     C      0.037030000000     0.276340000000     0.990360000000     0.0340535  
C128     C      0.946990000000     0.274210000000     0.006570000000     0.0709033  
C129     C      0.773730000000     0.951220000000     0.988020000000     0.0312432  
C130     C      0.775590000000     0.040730000000     0.005780000000     0.0179203  
C131     C      0.719820000000     0.952040000000     0.990320000000     0.0339651  
C132     C      0.721590000000     0.042610000000     0.003920000000     0.0713305  
C133     C      0.221490000000     0.953880000000     0.002560000000     0.0315304  
C134     C      0.219330000000     0.044410000000     0.991050000000     0.0179427  
C135     C      0.275360000000     0.955100000000     0.000980000000     0.0343095  
C136     C      0.273350000000     0.046390000000     0.993700000000     0.0711792  
C137     C      0.028570000000     0.032070000000     0.718750000000     0.0311905  
C138     C      0.968790000000     0.963630000000     0.717490000000     0.017043   
C139     C      0.027200000000     0.032290000000     0.772600000000     0.0304311  
C140     C      0.966960000000     0.963500000000     0.771420000000     0.0676714  
C141     C      0.971720000000     0.029240000000     0.272260000000     0.0309406  
C142     C      0.032210000000     0.961390000000     0.272620000000     0.0170944  
C143     C      0.971860000000     0.029190000000     0.218480000000     0.0300923  
C144     C      0.032820000000     0.961020000000     0.218610000000     0.0677936  
H1       H      0.578440000000     0.496560000000     0.696510000000     0.038669   
H2       H      0.578760000000     0.491480000000     0.789940000000     0.0425288  
H3       H      0.415260000000     0.511560000000     0.791810000000     0.0486729  
H4       H      0.382490000000     0.569390000000     0.680510000000     0.042189   
H5       H      0.485390000000     0.579740000000     0.195950000000     0.041713   
H6       H      0.482570000000     0.581110000000     0.289380000000     0.0434664  
H7       H      0.502560000000     0.417440000000     0.292480000000     0.0486666  
H8       H      0.459270000000     0.368170000000     0.179700000000     0.048203   
H9       H      0.579530000000     0.698020000000     0.491130000000     0.0418862  
H10      H      0.580610000000     0.791700000000     0.487470000000     0.0443163  
H11      H      0.418250000000     0.795100000000     0.514800000000     0.0485235  
H12      H      0.367320000000     0.681390000000     0.474770000000     0.050608   
H13      H      0.502120000000     0.199550000000     0.416540000000     0.0408963  
H14      H      0.503900000000     0.293200000000     0.416530000000     0.0433858  
H15      H      0.481900000000     0.294400000000     0.579310000000     0.0480563  
H16      H      0.429760000000     0.179270000000     0.611800000000     0.043716   
H17      H      0.551050000000     0.700450000000     0.045930000000     0.0461557  
H18      H      0.552330000000     0.792400000000     0.048300000000     0.0451754  
H19      H      0.436860000000     0.798400000000     0.931180000000     0.0495746  
H20      H      0.440790000000     0.688520000000     0.864010000000     0.0466252  
H21      H      0.442380000000     0.296940000000     0.049330000000     0.0443055  
H22      H      0.442960000000     0.204740000000     0.053050000000     0.0432382  
H23      H      0.551400000000     0.199260000000     0.929500000000     0.0487146  
H24      H      0.536680000000     0.306610000000     0.860050000000     0.045106   
H25      H      0.441520000000     0.939970000000     0.699870000000     0.0443588  
H26      H      0.438610000000     0.940870000000     0.792160000000     0.0447078  
H27      H      0.558510000000     0.053810000000     0.795880000000     0.0492934  
H28      H      0.627610000000     0.044680000000     0.692710000000     0.041285   
H29      H      0.445380000000     0.049250000000     0.293170000000     0.0462329  
H30      H      0.443590000000     0.051910000000     0.201360000000     0.0447978  
H31      H      0.558560000000     0.934070000000     0.194520000000     0.0501724  
H32      H      0.625680000000     0.936220000000     0.304060000000     0.0453342  
H33      H      0.698700000000     0.499200000000     0.409390000000     0.0399309  
H34      H      0.792540000000     0.505690000000     0.410880000000     0.0431053  
H35      H      0.792410000000     0.471630000000     0.571680000000     0.0469519  
H36      H      0.676490000000     0.507460000000     0.620720000000     0.0499005  
H37      H      0.200170000000     0.483970000000     0.573460000000     0.0409012  
H38      H      0.293650000000     0.479890000000     0.572670000000     0.0437085  
H39      H      0.294320000000     0.512430000000     0.411610000000     0.0477269  
H40      H      0.179350000000     0.472950000000     0.362040000000     0.0497365  
H41      H      0.791490000000     0.448130000000     0.943340000000     0.0460348  
H42      H      0.699770000000     0.445860000000     0.943450000000     0.0451848  
H43      H      0.695360000000     0.561690000000     0.060340000000     0.0495035  
H44      H      0.806920000000     0.557910000000     0.124900000000     0.0458667  
H45      H      0.291360000000     0.443020000000     0.053880000000     0.0448751  
H46      H      0.198940000000     0.442450000000     0.054750000000     0.0448875  
H47      H      0.195840000000     0.564080000000     0.943880000000     0.0492432  
H48      H      0.305120000000     0.630850000000     0.956200000000     0.0449637  
H49      H      0.053260000000     0.544650000000     0.699780000000     0.0454961  
H50      H      0.054100000000     0.545220000000     0.791670000000     0.0442409  
H51      H      0.933410000000     0.433130000000     0.795050000000     0.0495759  
H52      H      0.867210000000     0.442610000000     0.685370000000     0.0439043  
H53      H      0.048510000000     0.434560000000     0.199550000000     0.0453413  
H54      H      0.049780000000     0.433600000000     0.291840000000     0.0443136  
H55      H      0.940430000000     0.556810000000     0.295740000000     0.0496922  
H56      H      0.945510000000     0.621800000000     0.185660000000     0.0461717  
H57      H      0.920130000000     0.793900000000     0.488400000000     0.0414061  
H58      H      0.917740000000     0.700150000000     0.485820000000     0.0435443  
H59      H      0.080100000000     0.694810000000     0.512420000000     0.0481896  
H60      H      0.131910000000     0.807230000000     0.468700000000     0.0495358  
H61      H      0.078830000000     0.197250000000     0.486920000000     0.042036   
H62      H      0.078940000000     0.290960000000     0.483220000000     0.0441125  
H63      H      0.915880000000     0.292420000000     0.506350000000     0.0491064  
H64      H      0.867570000000     0.178060000000     0.464210000000     0.0504451  
H65      H      0.702210000000     0.002770000000     0.416100000000     0.0391936  
H66      H      0.795900000000     0.003550000000     0.414430000000     0.0425302  
H67      H      0.799400000000     0.989760000000     0.578070000000     0.0479078  
H68      H      0.690070000000     0.041750000000     0.624070000000     0.0460247  
H69      H      0.299270000000     0.991000000000     0.414990000000     0.0407596  
H70      H      0.205660000000     0.985360000000     0.414640000000     0.0431185  
H71      H      0.203050000000     0.013980000000     0.576450000000     0.048609   
H72      H      0.317900000000     0.975380000000     0.626320000000     0.0496213  
H73      H      0.008020000000     0.699700000000     0.072200000000     0.0395654  
H74      H      0.011970000000     0.793150000000     0.072880000000     0.0412947  
H75      H      0.983410000000     0.796100000000     0.911040000000     0.0461294  
H76      H      0.023840000000     0.681800000000     0.860740000000     0.0486091  
H77      H      0.072800000000     0.297190000000     0.983700000000     0.0409103  
H78      H      0.074360000000     0.203550000000     0.979320000000     0.0429269  
H79      H      0.913720000000     0.198750000000     0.015390000000     0.0474259  
H80      H      0.883760000000     0.311280000000     0.073380000000     0.0433856  
H81      H      0.699110000000     0.916020000000     0.984440000000     0.0407006  
H82      H      0.792920000000     0.914540000000     0.981320000000     0.0432106  
H83      H      0.796660000000     0.076370000000     0.012730000000     0.0479257  
H84      H      0.683780000000     0.128420000000     0.970910000000     0.0489762  
H85      H      0.296150000000     0.918810000000     0.004450000000     0.0406355  
H86      H      0.202470000000     0.916700000000     0.006420000000     0.0429968  
H87      H      0.198110000000     0.080320000000     0.986350000000     0.04789    
H88      H      0.310510000000     0.129640000000     0.033240000000     0.0488324  
H89      H      0.051150000000     0.060560000000     0.792140000000     0.0461733  
H90      H      0.053470000000     0.059850000000     0.699700000000     0.0457116  
H91      H      0.945250000000     0.935660000000     0.696930000000     0.0501118  
H92      H      0.955100000000     0.871350000000     0.807120000000     0.0442899  
H93      H      0.947150000000     0.057130000000     0.199420000000     0.0459089  
H94      H      0.946930000000     0.056900000000     0.291640000000     0.0453218  
H95      H      0.056480000000     0.933840000000     0.292860000000     0.0493832  
H96      H      0.045490000000     0.869030000000     0.182870000000     0.0441907  
N1       N      0.496920000000     0.500710000000     0.797520000000    -0.164521   
N2       N      0.496250000000     0.503530000000     0.690270000000    -0.17364    
N3       N      0.492500000000     0.499370000000     0.297630000000    -0.164109   
N4       N      0.492690000000     0.497380000000     0.190200000000    -0.172858   
N5       N      0.499360000000     0.800210000000     0.500390000000    -0.162901   
N6       N      0.497690000000     0.692230000000     0.501620000000    -0.171848   
N7       N      0.493420000000     0.300470000000     0.498090000000    -0.163438   
N8       N      0.494950000000     0.192660000000     0.498420000000    -0.172115   
N9       N      0.494460000000     0.802300000000     0.990060000000    -0.166259   
N10      N      0.492560000000     0.694310000000     0.987090000000    -0.172557   
N11      N      0.497660000000     0.194990000000     0.991890000000    -0.1653     
N12      N      0.497150000000     0.303290000000     0.987100000000    -0.170999   
N13      N      0.498380000000     0.997510000000     0.801000000000    -0.164678   
N14      N      0.501870000000     0.996770000000     0.693030000000    -0.171577   
N15      N      0.501080000000     0.993270000000     0.190840000000    -0.16377    
N16      N      0.503480000000     0.989830000000     0.299000000000    -0.170502   
N17      N      0.799090000000     0.489750000000     0.491590000000    -0.164288   
N18      N      0.691690000000     0.485400000000     0.490340000000    -0.173337   
N19      N      0.300620000000     0.495520000000     0.491900000000    -0.164008   
N20      N      0.193030000000     0.497060000000     0.492320000000    -0.173229   
N21      N      0.690510000000     0.503720000000     0.001940000000    -0.164602   
N22      N      0.798770000000     0.506610000000     0.002060000000    -0.170901   
N23      N      0.190400000000     0.502690000000     0.998620000000    -0.164768   
N24      N      0.298630000000     0.503720000000     0.997640000000    -0.171583   
N25      N      0.993680000000     0.489170000000     0.800460000000    -0.164183   
N26      N      0.992460000000     0.488380000000     0.692200000000    -0.170121   
N27      N      0.995380000000     0.495420000000     0.300790000000    -0.164501   
N28      N      0.993500000000     0.496580000000     0.192740000000    -0.171449   
N29      N      0.998830000000     0.690670000000     0.498850000000    -0.162581   
N30      N      0.002100000000     0.798760000000     0.498250000000    -0.171319   
N31      N      0.997350000000     0.298360000000     0.494430000000    -0.163746   
N32      N      0.996810000000     0.190620000000     0.495450000000    -0.172605   
N33      N      0.804190000000     0.996500000000     0.496200000000    -0.164798   
N34      N      0.696750000000     0.999600000000     0.498370000000    -0.173291   
N35      N      0.197740000000     0.998900000000     0.495650000000    -0.16433    
N36      N      0.305200000000     0.002160000000     0.496510000000    -0.173292   
N37      N      0.998020000000     0.801190000000     0.991920000000    -0.165756   
N38      N      0.996600000000     0.693710000000     0.990640000000    -0.174095   
N39      N      0.994060000000     0.194630000000     0.996970000000    -0.165101   
N40      N      0.991580000000     0.302060000000     0.998550000000    -0.173408   
N41      N      0.801370000000     0.995380000000     0.996840000000    -0.164329   
N42      N      0.693910000000     0.997750000000     0.996770000000    -0.173578   
N43      N      0.193730000000     0.998380000000     0.996310000000    -0.164339   
N44      N      0.301140000000     0.001210000000     0.997800000000    -0.173459   
N45      N      0.999410000000     0.997690000000     0.691230000000    -0.164007   
N46      N      0.996490000000     0.998370000000     0.799480000000    -0.170049   
N47      N      0.001780000000     0.995270000000     0.299330000000    -0.164001   
N48      N      0.002230000000     0.995390000000     0.191080000000    -0.170075   
O1       O      0.997630000000     0.998150000000     0.995260000000    -0.369482   
O2       O      0.028490000000     0.118420000000     0.968650000000    -0.298912   
O3       O      0.878690000000     0.027980000000     0.023530000000    -0.300116   
O4       O      0.965950000000     0.971950000000     0.878380000000    -0.300476   
O5       O      0.963530000000     0.116500000000     0.024160000000    -0.300144   
O6       O      0.029000000000     0.029290000000     0.876540000000    -0.294798   
O7       O      0.878450000000     0.961400000000     0.969710000000    -0.296801   
O8       O      0.022670000000     0.877830000000     0.028070000000    -0.302119   
O9       O      0.968230000000     0.026700000000     0.114900000000    -0.29623    
O10      O      0.973420000000     0.879010000000     0.958480000000    -0.302297   
O11      O      0.030520000000     0.968670000000     0.111380000000    -0.300428   
O12      O      0.116720000000     0.961730000000     0.019570000000    -0.297256   
O13      O      0.116440000000     0.031890000000     0.970420000000    -0.2992     
O14      O      0.001040000000     0.995030000000     0.495190000000    -0.368298   
O15      O      0.973440000000     0.027500000000     0.376580000000    -0.299141   
O16      O      0.121190000000     0.971520000000     0.460880000000    -0.298336   
O17      O      0.034260000000     0.114380000000     0.519440000000    -0.296853   
O18      O      0.029050000000     0.962410000000     0.376930000000    -0.298006   
O19      O      0.964100000000     0.112510000000     0.470230000000    -0.298621   
O20      O      0.119820000000     0.022080000000     0.529750000000    -0.299113   
O21      O      0.973380000000     0.964180000000     0.613630000000    -0.298692   
O22      O      0.036730000000     0.876110000000     0.472100000000    -0.295401   
O23      O      0.028300000000     0.029790000000     0.613930000000    -0.297311   
O24      O      0.966210000000     0.876330000000     0.521000000000    -0.295351   
O25      O      0.881540000000     0.971520000000     0.530570000000    -0.298945   
O26      O      0.881160000000     0.018430000000     0.459250000000    -0.300246   
O27      O      0.994980000000     0.497620000000     0.996340000000    -0.371387   
O28      O      0.956830000000     0.379530000000     0.974650000000    -0.297355   
O29      O      0.113590000000     0.469920000000     0.027520000000    -0.300737   
O30      O      0.025020000000     0.520810000000     0.876630000000    -0.301306   
O31      O      0.028660000000     0.378600000000     0.021330000000    -0.299535   
O32      O      0.961740000000     0.463320000000     0.879110000000    -0.296899   
O33      O      0.112410000000     0.530050000000     0.966740000000    -0.30004    
O34      O      0.973760000000     0.617970000000     0.029170000000    -0.302457   
O35      O      0.023920000000     0.464040000000     0.115620000000    -0.298294   
O36      O      0.019370000000     0.615300000000     0.957040000000    -0.301539   
O37      O      0.968160000000     0.528150000000     0.114040000000    -0.30511    
O38      O      0.879020000000     0.534760000000     0.028890000000    -0.299673   
O39      O      0.874600000000     0.473340000000     0.970340000000    -0.302023   
O40      O      0.996280000000     0.494430000000     0.495900000000    -0.368644   
O41      O      0.961780000000     0.375620000000     0.518130000000    -0.298301   
O42      O      0.023290000000     0.461600000000     0.377530000000    -0.29953    
O43      O      0.876180000000     0.519240000000     0.459580000000    -0.297733   
O44      O      0.033230000000     0.375840000000     0.470880000000    -0.296816   
O45      O      0.876480000000     0.466860000000     0.526960000000    -0.301349   
O46      O      0.969570000000     0.528280000000     0.378660000000    -0.299333   
O47      O      0.031460000000     0.612070000000     0.523640000000    -0.294451   
O48      O      0.115330000000     0.471940000000     0.459220000000    -0.300177   
O49      O      0.962070000000     0.614160000000     0.473190000000    -0.294382   
O50      O      0.116550000000     0.518120000000     0.531060000000    -0.297817   
O51      O      0.023180000000     0.522520000000     0.616030000000    -0.297321   
O52      O      0.966040000000     0.459470000000     0.612420000000    -0.299128   
O53      O      0.497300000000     0.998360000000     0.995950000000    -0.3702     
O54      O      0.377330000000     0.966950000000     0.970500000000    -0.300287   
O55      O      0.469230000000     0.026250000000     0.115010000000    -0.297276   
O56      O      0.525520000000     0.878200000000     0.022970000000    -0.303087   
O57      O      0.378960000000     0.033300000000     0.024630000000    -0.298467   
O58      O      0.465480000000     0.880990000000     0.962590000000    -0.304569   
O59      O      0.529810000000     0.965620000000     0.112020000000    -0.298835   
O60      O      0.616830000000     0.031940000000     0.970880000000    -0.300754   
O61      O      0.470070000000     0.118460000000     0.027250000000    -0.300194   
O62      O      0.616900000000     0.962000000000     0.020190000000    -0.299325   
O63      O      0.526170000000     0.116460000000     0.963080000000    -0.303333   
O64      O      0.529770000000     0.025250000000     0.878720000000    -0.301372   
O65      O      0.463810000000     0.970660000000     0.877780000000    -0.299675   
O66      O      0.500800000000     0.996550000000     0.496010000000    -0.368399   
O67      O      0.618830000000     0.027340000000     0.529550000000    -0.298635   
O68      O      0.536100000000     0.876840000000     0.475200000000    -0.295035   
O69      O      0.471260000000     0.964430000000     0.616010000000    -0.299581   
O70      O      0.620530000000     0.971290000000     0.464860000000    -0.30005    
O71      O      0.529260000000     0.026340000000     0.614220000000    -0.303514   
O72      O      0.464410000000     0.878610000000     0.522190000000    -0.296539   
O73      O      0.382510000000     0.024430000000     0.460190000000    -0.296846   
O74      O      0.531160000000     0.960200000000     0.378490000000    -0.297223   
O75      O      0.381840000000     0.974810000000     0.529950000000    -0.300938   
O76      O      0.474520000000     0.023580000000     0.375550000000    -0.301043   
O77      O      0.472630000000     0.115360000000     0.461870000000    -0.296725   
O78      O      0.524530000000     0.115670000000     0.529960000000    -0.296216   
O79      O      0.495030000000     0.498910000000     0.994200000000    -0.372197   
O80      O      0.533380000000     0.477110000000     0.874530000000    -0.299063   
O81      O      0.377460000000     0.528620000000     0.965930000000    -0.304646   
O82      O      0.465530000000     0.379880000000     0.018780000000    -0.301615   
O83      O      0.460380000000     0.521550000000     0.874780000000    -0.302227   
O84      O      0.527190000000     0.382920000000     0.960190000000    -0.298302   
O85      O      0.375660000000     0.469620000000     0.026910000000    -0.298894   
O86      O      0.516180000000     0.534660000000     0.113960000000    -0.299127   
O87      O      0.464920000000     0.614800000000     0.958160000000    -0.303521   
O88      O      0.469350000000     0.462980000000     0.112310000000    -0.29947    
O89      O      0.521250000000     0.618020000000     0.021560000000    -0.304556   
O90      O      0.611440000000     0.532180000000     0.030320000000    -0.298623   
O91      O      0.614680000000     0.472730000000     0.969020000000    -0.30176    
O92      O      0.496480000000     0.496470000000     0.494150000000    -0.368499   
O93      O      0.378090000000     0.522440000000     0.458960000000    -0.297777   
O94      O      0.468870000000     0.378680000000     0.531950000000    -0.294694   
O95      O      0.515810000000     0.463150000000     0.374250000000    -0.300882   
O96      O      0.377640000000     0.469570000000     0.526290000000    -0.297695   
O97      O      0.472070000000     0.536700000000     0.375330000000    -0.296266   
O98      O      0.518860000000     0.377010000000     0.462430000000    -0.297812   
O99      O      0.616480000000     0.515880000000     0.523370000000    -0.30218    
O100     O      0.463460000000     0.475030000000     0.613960000000    -0.29942    
O101     O      0.613300000000     0.464100000000     0.455190000000    -0.294689   
O102     O      0.532350000000     0.525670000000     0.612900000000    -0.299088   
O103     O      0.535120000000     0.614180000000     0.520590000000    -0.29505    
O104     O      0.462510000000     0.615690000000     0.474960000000    -0.297923   
S1       S      0.390380000000     0.517400000000     0.687020000000    -0.0200277  
S2       S      0.506190000000     0.391170000000     0.188180000000    -0.022085   
S3       S      0.392550000000     0.690000000000     0.520380000000    -0.0250039  
S4       S      0.481290000000     0.188450000000     0.603960000000    -0.0174914  
S5       S      0.416640000000     0.695870000000     0.910410000000    -0.0188787  
S6       S      0.565680000000     0.301740000000     0.903940000000    -0.0150749  
S7       S      0.581400000000     0.070280000000     0.694230000000    -0.0129699  
S8       S      0.578880000000     0.912600000000     0.296680000000    -0.0128033  
S9       S      0.686910000000     0.462780000000     0.594280000000    -0.0273127  
S10      S      0.188630000000     0.518170000000     0.387970000000    -0.024081   
S11      S      0.798490000000     0.582400000000     0.078830000000    -0.013395   
S12      S      0.298320000000     0.586560000000     0.928000000000    -0.0137482  
S13      S      0.912350000000     0.415800000000     0.692260000000    -0.0115288  
S14      S      0.919930000000     0.576140000000     0.193880000000    -0.0180459  
S15      S      0.107510000000     0.799840000000     0.514970000000    -0.0234764  
S16      S      0.891120000000     0.187030000000     0.510640000000    -0.0215878  
S17      S      0.694520000000     0.992720000000     0.604620000000    -0.0246313  
S18      S      0.308230000000     0.021030000000     0.601290000000    -0.0246078  
S19      S      0.978070000000     0.690790000000     0.885710000000    -0.0237909  
S20      S      0.887310000000     0.303950000000     0.021220000000    -0.0198623  
S21      S      0.691680000000     0.102780000000     0.016440000000    -0.0234569  
S22      S      0.303140000000     0.107390000000     0.985890000000    -0.0235753  
S23      S      0.926820000000     0.915410000000     0.799020000000    -0.0114245  
S24      S      0.073170000000     0.913600000000     0.190240000000    -0.0121669  
Zn1      Zn     0.041510000000     0.043110000000     0.953330000000     0.452886   
Zn2      Zn     0.953490000000     0.040890000000     0.038830000000     0.454829   
Zn3      Zn     0.954670000000     0.954120000000     0.952220000000     0.456416   
Zn4      Zn     0.040820000000     0.952900000000     0.036840000000     0.456656   
Zn5      Zn     0.956350000000     0.037050000000     0.451570000000     0.454859   
Zn6      Zn     0.045760000000     0.952030000000     0.452490000000     0.450096   
Zn7      Zn     0.044520000000     0.039070000000     0.538280000000     0.454672   
Zn8      Zn     0.956830000000     0.952530000000     0.538580000000     0.452576   
Zn9      Zn     0.948340000000     0.454740000000     0.955940000000     0.455286   
Zn10     Zn     0.038900000000     0.453720000000     0.039180000000     0.454994   
Zn11     Zn     0.036810000000     0.539670000000     0.950490000000     0.456813   
Zn12     Zn     0.955410000000     0.543450000000     0.040390000000     0.460883   
Zn13     Zn     0.951590000000     0.450510000000     0.537020000000     0.457432   
Zn14     Zn     0.040630000000     0.451820000000     0.452440000000     0.45476    
Zn15     Zn     0.952090000000     0.538370000000     0.453540000000     0.45143    
Zn16     Zn     0.040670000000     0.535660000000     0.540770000000     0.449796   
Zn17     Zn     0.452100000000     0.956070000000     0.953010000000     0.459452   
Zn18     Zn     0.455140000000     0.042880000000     0.039900000000     0.452413   
Zn19     Zn     0.541240000000     0.952580000000     0.036480000000     0.457528   
Zn20     Zn     0.541490000000     0.041440000000     0.953480000000     0.457604   
Zn21     Zn     0.542510000000     0.040470000000     0.540370000000     0.458049   
Zn22     Zn     0.545770000000     0.952240000000     0.454830000000     0.452217   
Zn23     Zn     0.456020000000     0.954580000000     0.539820000000     0.452624   
Zn24     Zn     0.458950000000     0.038880000000     0.449600000000     0.452851   
Zn25     Zn     0.541120000000     0.459090000000     0.950380000000     0.456051   
Zn26     Zn     0.451150000000     0.539260000000     0.949370000000     0.463465   
Zn27     Zn     0.452220000000     0.454070000000     0.036820000000     0.454182   
Zn28     Zn     0.534740000000     0.544360000000     0.039030000000     0.458334   
Zn29     Zn     0.453690000000     0.541630000000     0.451710000000     0.450138   
Zn30     Zn     0.453010000000     0.455630000000     0.540110000000     0.454649   
Zn31     Zn     0.535390000000     0.451690000000     0.447890000000     0.453885   
Zn32     Zn     0.543730000000     0.537240000000     0.536340000000     0.453005   


