data_structure

_audit_creation_method RASPA-1.0
_audit_creation_date 2023-5-19
_audit_author_name 'Poobodin Mano'

_cell_length_a    25.9271
_cell_length_b    25.9037
_cell_length_c    25.8226
_cell_angle_alpha 90
_cell_angle_beta  90
_cell_angle_gamma 90
_cell_volume      17342.7

_symmetry_cell_setting          triclinic
_symmetry_space_group_name_Hall 'P 1'
_symmetry_space_group_name_H-M  'P 1'
_symmetry_Int_Tables_number     1

_symmetry_equiv_pos_as_xyz 'x,y,z'

loop_
_atom_site_label
_atom_site_type_symbol
_atom_site_fract_x
_atom_site_fract_y
_atom_site_fract_z
_atom_site_charge
C1       C      0.004280000000     0.001370000000     0.859310000000     0.371555   
C2       C      0.995870000000     0.142490000000     0.004690000000     0.372902   
C3       C      0.856480000000     0.001220000000     0.000280000000     0.36913    
C4       C      0.004700000000     0.997770000000     0.145790000000     0.397356   
C5       C      0.143620000000     0.999670000000     0.000010000000     0.402787   
C6       C      0.995680000000     0.857400000000     0.001690000000     0.370596   
C7       C      0.001840000000     0.996990000000     0.360510000000     0.368838   
C8       C      0.856560000000     0.998650000000     0.505580000000     0.395481   
C9       C      0.004250000000     0.856250000000     0.506420000000     0.403419   
C10      C      0.002050000000     0.003380000000     0.645020000000     0.395844   
C11      C      0.001950000000     0.143610000000     0.497060000000     0.402478   
C12      C      0.144430000000     0.000780000000     0.505640000000     0.378696   
C13      C      0.997020000000     0.356200000000     0.003960000000     0.397495   
C14      C      0.998280000000     0.502450000000     0.145650000000     0.366798   
C15      C      0.141780000000     0.498740000000     0.999660000000     0.390864   
C16      C      0.999310000000     0.643730000000     0.000640000000     0.398185   
C17      C      0.857770000000     0.501080000000     0.000150000000     0.396434   
C18      C      0.997680000000     0.497800000000     0.856650000000     0.369776   
C19      C      0.002800000000     0.356400000000     0.496090000000     0.368909   
C20      C      0.995300000000     0.504200000000     0.359170000000     0.398445   
C21      C      0.855560000000     0.501050000000     0.501120000000     0.40342    
C22      C      0.004660000000     0.643440000000     0.505920000000     0.376707   
C23      C      0.141740000000     0.498940000000     0.501610000000     0.366867   
C24      C      0.994140000000     0.496920000000     0.643020000000     0.400744   
C25      C      0.506520000000     0.857110000000     0.011050000000     0.402862   
C26      C      0.356160000000     0.998320000000     0.997340000000     0.373417   
C27      C      0.496040000000     0.004420000000     0.144970000000     0.365158   
C28      C      0.502800000000     0.143270000000     0.002940000000     0.369659   
C29      C      0.495280000000     0.997560000000     0.860770000000     0.402321   
C30      C      0.643660000000     0.002430000000     0.998080000000     0.404206   
C31      C      0.357570000000     0.000990000000     0.508660000000     0.402282   
C32      C      0.497320000000     0.003890000000     0.358520000000     0.401305   
C33      C      0.499010000000     0.143580000000     0.498890000000     0.370721   
C34      C      0.642530000000     0.999610000000     0.507250000000     0.367743   
C35      C      0.497750000000     0.857890000000     0.495920000000     0.369774   
C36      C      0.498540000000     0.998730000000     0.647050000000     0.370549   
C37      C      0.502430000000     0.356240000000     0.999560000000     0.402464   
C38      C      0.355980000000     0.499920000000     0.999310000000     0.369055   
C39      C      0.500850000000     0.498720000000     0.142610000000     0.368752   
C40      C      0.503090000000     0.644330000000     0.006060000000     0.367763   
C41      C      0.501540000000     0.502320000000     0.858230000000     0.368497   
C42      C      0.644360000000     0.500430000000     0.999920000000     0.376865   
C43      C      0.354940000000     0.499560000000     0.501750000000     0.398864   
C44      C      0.496110000000     0.357510000000     0.498430000000     0.394881   
C45      C      0.502310000000     0.500720000000     0.357030000000     0.395665   
C46      C      0.642810000000     0.501210000000     0.500240000000     0.366663   
C47      C      0.503890000000     0.501560000000     0.643460000000     0.396224   
C48      C      0.494680000000     0.643890000000     0.498010000000     0.395448   
C49      C      0.472890000000     0.468180000000     0.777610000000     0.0288125  
C50      C      0.533460000000     0.535980000000     0.778440000000    -0.068126   
C51      C      0.473880000000     0.467990000000     0.723620000000     0.0554263  
C52      C      0.534730000000     0.535750000000     0.724270000000     0.381847   
C53      C      0.533930000000     0.467680000000     0.222910000000     0.0258237  
C54      C      0.469570000000     0.531940000000     0.222430000000    -0.0729709  
C55      C      0.534560000000     0.468710000000     0.276960000000     0.051979   
C56      C      0.469930000000     0.532950000000     0.276390000000     0.378081   
C57      C      0.464740000000     0.778010000000     0.463510000000     0.0276073  
C58      C      0.528930000000     0.777930000000     0.528090000000    -0.0709802  
C59      C      0.463620000000     0.723980000000     0.464710000000     0.053724   
C60      C      0.527980000000     0.724210000000     0.529380000000     0.381502   
C61      C      0.465130000000     0.223280000000     0.529810000000     0.0274045  
C62      C      0.528380000000     0.223590000000     0.464280000000    -0.0707771  
C63      C      0.464340000000     0.277140000000     0.529510000000     0.0531613  
C64      C      0.527700000000     0.277510000000     0.463850000000     0.37709    
C65      C      0.459910000000     0.724470000000     0.014580000000     0.0263038  
C66      C      0.550650000000     0.722960000000     0.007270000000    -0.0687521  
C67      C      0.460890000000     0.778320000000     0.014150000000     0.0542477  
C68      C      0.551970000000     0.776930000000     0.011760000000     0.381314   
C69      C      0.457630000000     0.222860000000     0.004310000000     0.0293208  
C70      C      0.548530000000     0.222690000000     0.999160000000    -0.0665209  
C71      C      0.457510000000     0.276680000000     0.000470000000     0.0553321  
C72      C      0.548650000000     0.276730000000     0.000320000000     0.380333   
C73      C      0.499980000000     0.952640000000     0.726770000000     0.0301217  
C74      C      0.492220000000     0.043420000000     0.726930000000    -0.067501   
C75      C      0.496190000000     0.952320000000     0.780850000000     0.0587345  
C76      C      0.492770000000     0.043470000000     0.780990000000     0.384694   
C77      C      0.541320000000     0.001770000000     0.224570000000     0.024677   
C78      C      0.450640000000     0.009940000000     0.224800000000    -0.0703032  
C79      C      0.541730000000     0.003950000000     0.278550000000     0.0532705  
C80      C      0.450640000000     0.007400000000     0.278970000000     0.379925   
C81      C      0.722320000000     0.455790000000     0.499510000000     0.0270595  
C82      C      0.722140000000     0.546890000000     0.502020000000    -0.0672818  
C83      C      0.776160000000     0.455890000000     0.502270000000     0.0561073  
C84      C      0.776060000000     0.547090000000     0.499850000000     0.384615   
C85      C      0.221500000000     0.500130000000     0.456250000000     0.0283368  
C86      C      0.221190000000     0.497470000000     0.547570000000    -0.0685744  
C87      C      0.275370000000     0.502530000000     0.456570000000     0.0547389  
C88      C      0.275150000000     0.495540000000     0.547770000000     0.381354   
C89      C      0.724270000000     0.470210000000     0.033470000000     0.0298277  
C90      C      0.723790000000     0.531110000000     0.965610000000    -0.0694045  
C91      C      0.778000000000     0.470620000000     0.033440000000     0.0538023  
C92      C      0.777590000000     0.531540000000     0.965390000000     0.38102    
C93      C      0.275690000000     0.530420000000     0.032330000000     0.0262443  
C94      C      0.276300000000     0.468460000000     0.965590000000    -0.0704761  
C95      C      0.221810000000     0.529900000000     0.032320000000     0.0510676  
C96      C      0.222320000000     0.467860000000     0.965430000000     0.378099   
C97      C      0.998670000000     0.451770000000     0.776910000000     0.0300937  
C98      C      0.991520000000     0.542610000000     0.776870000000    -0.0665766  
C99      C      0.994620000000     0.451540000000     0.722830000000     0.0564074  
C100     C      0.992180000000     0.542720000000     0.722790000000     0.384056   
C101     C      0.991140000000     0.458430000000     0.225770000000     0.0258445  
C102     C      0.001310000000     0.549000000000     0.224930000000    -0.0692309  
C103     C      0.992270000000     0.458850000000     0.279800000000     0.0548083  
C104     C      0.997520000000     0.549920000000     0.279050000000     0.382033   
C105     C      0.959740000000     0.722950000000     0.507620000000     0.0342938  
C106     C      0.050800000000     0.722760000000     0.508490000000    -0.0625908  
C107     C      0.959740000000     0.776730000000     0.509980000000     0.0599289  
C108     C      0.050820000000     0.776790000000     0.506050000000     0.384018   
C109     C      0.957520000000     0.276990000000     0.495050000000     0.0251355  
C110     C      0.048550000000     0.276960000000     0.492810000000    -0.0698433  
C111     C      0.957380000000     0.223150000000     0.492860000000     0.0535528  
C112     C      0.048500000000     0.222980000000     0.495430000000     0.382116   
C113     C      0.722580000000     0.031130000000     0.475010000000     0.0237657  
C114     C      0.722370000000     0.968150000000     0.540820000000    -0.0701289  
C115     C      0.776380000000     0.030530000000     0.474460000000     0.0497328  
C116     C      0.776370000000     0.967560000000     0.540490000000     0.378198   
C117     C      0.224670000000     0.968710000000     0.475270000000     0.0327063  
C118     C      0.223280000000     0.031720000000     0.541190000000    -0.0661669  
C119     C      0.278280000000     0.968680000000     0.476510000000     0.0583607  
C120     C      0.277100000000     0.031820000000     0.542510000000     0.384832   
C121     C      0.963160000000     0.777050000000     0.970680000000     0.0281155  
C122     C      0.028980000000     0.778140000000     0.033650000000    -0.0719168  
C123     C      0.964580000000     0.723180000000     0.970340000000     0.0536497  
C124     C      0.030580000000     0.724370000000     0.033350000000     0.381356   
C125     C      0.028020000000     0.222250000000     0.972790000000     0.0292786  
C126     C      0.962810000000     0.222340000000     0.036410000000    -0.0700272  
C127     C      0.028400000000     0.275970000000     0.972900000000     0.0537992  
C128     C      0.963010000000     0.276310000000     0.036560000000     0.378165   
C129     C      0.776440000000     0.007250000000     0.044250000000     0.0266224  
C130     C      0.777620000000     0.998200000000     0.953310000000    -0.0675102  
C131     C      0.722690000000     0.005540000000     0.043630000000     0.0560288  
C132     C      0.723690000000     0.000830000000     0.952260000000     0.383324   
C133     C      0.276430000000     0.953350000000     0.993030000000     0.0281648  
C134     C      0.277220000000     0.044270000000     0.999500000000    -0.068957   
C135     C      0.222610000000     0.953720000000     0.996690000000     0.0564238  
C136     C      0.223400000000     0.044950000000     0.998480000000     0.382889   
C137     C      0.974260000000     0.968090000000     0.779070000000     0.0281272  
C138     C      0.034830000000     0.035960000000     0.779530000000    -0.0701052  
C139     C      0.973550000000     0.968950000000     0.725190000000     0.0540671  
C140     C      0.034020000000     0.037130000000     0.725440000000     0.380169   
C141     C      0.970880000000     0.028680000000     0.279800000000     0.0253722  
C142     C      0.036170000000     0.965410000000     0.280850000000    -0.069595   
C143     C      0.972020000000     0.028920000000     0.225840000000     0.0510276  
C144     C      0.037540000000     0.965670000000     0.226680000000     0.380554   
F1       F      0.566180000000     0.570270000000     0.700310000000    -0.412068   
F2       F      0.437360000000     0.566520000000     0.300230000000    -0.427787   
F3       F      0.560370000000     0.700370000000     0.563190000000    -0.412752   
F4       F      0.559590000000     0.301830000000     0.429920000000    -0.429429   
F5       F      0.598350000000     0.801300000000     0.010050000000    -0.424505   
F6       F      0.594700000000     0.301750000000     0.998460000000    -0.427143   
F7       F      0.489010000000     0.089530000000     0.805970000000    -0.423353   
F8       F      0.404760000000     0.010260000000     0.304290000000    -0.426592   
F9       F      0.800970000000     0.593270000000     0.500010000000    -0.421619   
F10      F      0.299830000000     0.493420000000     0.594170000000    -0.425135   
F11      F      0.801510000000     0.562880000000     0.930660000000    -0.421668   
F12      F      0.198460000000     0.435890000000     0.931250000000    -0.424387   
F13      F      0.989010000000     0.588800000000     0.697770000000    -0.42241    
F14      F      0.000920000000     0.596110000000     0.303790000000    -0.422833   
F15      F      0.096860000000     0.801860000000     0.505220000000    -0.425123   
F16      F      0.094520000000     0.197850000000     0.495670000000    -0.422743   
F17      F      0.800570000000     0.935090000000     0.573960000000    -0.422702   
F18      F      0.300720000000     0.063900000000     0.576750000000    -0.419193   
F19      F      0.064850000000     0.700890000000     0.065490000000    -0.423387   
F20      F      0.929840000000     0.300730000000     0.069140000000    -0.428133   
F21      F      0.699310000000     0.997400000000     0.905780000000    -0.420643   
F22      F      0.198980000000     0.091320000000     0.001350000000    -0.426129   
F23      F      0.064690000000     0.072220000000     0.701280000000    -0.419701   
F24      F      0.071430000000     0.933480000000     0.202810000000    -0.421079   
H1       H      0.449430000000     0.440240000000     0.703980000000     0.0597119  
H2       H      0.447850000000     0.440650000000     0.796810000000     0.0622309  
H3       H      0.557770000000     0.563570000000     0.798490000000     0.116077   
H4       H      0.560930000000     0.442840000000     0.296690000000     0.0571932  
H5       H      0.559970000000     0.441270000000     0.203460000000     0.0593904  
H6       H      0.443260000000     0.557800000000     0.202600000000     0.110442   
H7       H      0.437160000000     0.704410000000     0.438790000000     0.0593274  
H8       H      0.438960000000     0.797680000000     0.436980000000     0.0609718  
H9       H      0.555420000000     0.797400000000     0.554080000000     0.116314   
H10      H      0.438350000000     0.296370000000     0.556160000000     0.0566187  
H11      H      0.439640000000     0.203630000000     0.556640000000     0.0676663  
H12      H      0.554300000000     0.204080000000     0.437760000000     0.108869   
H13      H      0.424430000000     0.798830000000     0.016000000000     0.0465536  
H14      H      0.422750000000     0.705280000000     0.016170000000     0.0550052  
H15      H      0.586860000000     0.702270000000     0.003880000000     0.109549   
H16      H      0.420710000000     0.296610000000     0.000600000000     0.0500941  
H17      H      0.420850000000     0.202980000000     0.006220000000     0.0598029  
H18      H      0.585210000000     0.202580000000     0.997800000000     0.109212   
H19      H      0.497720000000     0.915480000000     0.800770000000     0.0545028  
H20      H      0.503180000000     0.915990000000     0.706720000000     0.0607542  
H21      H      0.489950000000     0.080250000000     0.707050000000     0.112966   
H22      H      0.578600000000     0.001920000000     0.298310000000     0.0456151  
H23      H      0.577990000000     0.999010000000     0.204510000000     0.0542035  
H24      H      0.413960000000     0.012870000000     0.204790000000     0.108803   
H25      H      0.796150000000     0.419090000000     0.502840000000     0.0461227  
H26      H      0.702450000000     0.418940000000     0.498910000000     0.0597716  
H27      H      0.702060000000     0.583630000000     0.502560000000     0.118677   
H28      H      0.295280000000     0.504950000000     0.419700000000     0.055565   
H29      H      0.201790000000     0.501670000000     0.419230000000     0.0595987  
H30      H      0.201140000000     0.496000000000     0.584410000000     0.111678   
H31      H      0.797520000000     0.445910000000     0.061110000000     0.0588764  
H32      H      0.704940000000     0.445330000000     0.061110000000     0.064129   
H33      H      0.703950000000     0.555720000000     0.938080000000     0.115715   
H34      H      0.202270000000     0.555030000000     0.059580000000     0.0584622  
H35      H      0.294950000000     0.555820000000     0.059540000000     0.0587538  
H36      H      0.296170000000     0.443430000000     0.938470000000     0.111672   
H37      H      0.995730000000     0.414740000000     0.702800000000     0.0501355  
H38      H      0.001660000000     0.415110000000     0.796970000000     0.058894   
H39      H      0.989570000000     0.579410000000     0.796850000000     0.113058   
H40      H      0.989390000000     0.422290000000     0.300110000000     0.0472466  
H41      H      0.988040000000     0.421530000000     0.206150000000     0.0609969  
H42      H      0.005500000000     0.585320000000     0.204450000000     0.115887   
H43      H      0.922900000000     0.796570000000     0.510980000000     0.059933   
H44      H      0.922890000000     0.703110000000     0.507720000000     0.0754545  
H45      H      0.087490000000     0.702620000000     0.508380000000     0.111816   
H46      H      0.920500000000     0.203350000000     0.492570000000     0.0458666  
H47      H      0.920730000000     0.296930000000     0.495460000000     0.0526081  
H48      H      0.085300000000     0.296990000000     0.492300000000     0.109297   
H49      H      0.795690000000     0.056060000000     0.447410000000     0.0482166  
H50      H      0.703220000000     0.056960000000     0.448290000000     0.0554249  
H51      H      0.702620000000     0.942720000000     0.567650000000     0.114163   
H52      H      0.298050000000     0.942950000000     0.449980000000     0.0608101  
H53      H      0.205770000000     0.943050000000     0.448050000000     0.0689728  
H54      H      0.203030000000     0.057260000000     0.567530000000     0.126421   
H55      H      0.938230000000     0.703260000000     0.944570000000     0.0612005  
H56      H      0.936000000000     0.796210000000     0.945170000000     0.0615808  
H57      H      0.055310000000     0.798140000000     0.059390000000     0.118947   
H58      H      0.055130000000     0.295150000000     0.946950000000     0.059875   
H59      H      0.054530000000     0.202750000000     0.946850000000     0.0674357  
H60      H      0.936300000000     0.202680000000     0.062210000000     0.109116   
H61      H      0.702470000000     0.008080000000     0.080330000000     0.0472746  
H62      H      0.795750000000     0.010200000000     0.081400000000     0.0543349  
H63      H      0.798090000000     0.994710000000     0.916830000000     0.110098   
H64      H      0.202330000000     0.917090000000     0.995990000000     0.0508548  
H65      H      0.296050000000     0.916440000000     0.990710000000     0.0551153  
H66      H      0.297520000000     0.080840000000     0.001480000000     0.109775   
H67      H      0.948610000000     0.941520000000     0.705710000000     0.061055   
H68      H      0.949840000000     0.940100000000     0.798420000000     0.0616499  
H69      H      0.059590000000     0.063230000000     0.799460000000     0.114304   
H70      H      0.945690000000     0.054840000000     0.206130000000     0.0504361  
H71      H      0.943880000000     0.054360000000     0.298900000000     0.0555347  
H72      H      0.062340000000     0.939660000000     0.301010000000     0.115813   
N1       N      0.502540000000     0.502270000000     0.805060000000    -0.141382   
N2       N      0.504580000000     0.501800000000     0.696740000000    -0.209824   
N3       N      0.501370000000     0.499270000000     0.195700000000    -0.14294    
N4       N      0.502390000000     0.501070000000     0.303830000000    -0.212272   
N5       N      0.497290000000     0.804910000000     0.495400000000    -0.142158   
N6       N      0.495230000000     0.696980000000     0.497600000000    -0.210491   
N7       N      0.497480000000     0.196520000000     0.497530000000    -0.141886   
N8       N      0.495940000000     0.304440000000     0.496980000000    -0.211986   
N9       N      0.504630000000     0.697020000000     0.009320000000    -0.142778   
N10      N      0.506830000000     0.804380000000     0.013270000000    -0.21468    
N11      N      0.503100000000     0.196060000000     0.002470000000    -0.141615   
N12      N      0.502980000000     0.303460000000     0.999890000000    -0.214119   
N13      N      0.497160000000     0.998180000000     0.700020000000    -0.140971   
N14      N      0.494190000000     0.997780000000     0.807800000000    -0.212176   
N15      N      0.495860000000     0.005550000000     0.197890000000    -0.142698   
N16      N      0.496400000000     0.005190000000     0.305600000000    -0.214847   
N17      N      0.695540000000     0.501290000000     0.500570000000    -0.140159   
N18      N      0.802840000000     0.501460000000     0.501070000000    -0.214671   
N19      N      0.194570000000     0.498750000000     0.501810000000    -0.141623   
N20      N      0.302100000000     0.499140000000     0.502190000000    -0.212692   
N21      N      0.697200000000     0.500530000000     0.999630000000    -0.14242    
N22      N      0.804810000000     0.501230000000     0.999500000000    -0.211632   
N23      N      0.302970000000     0.499650000000     0.999020000000    -0.142867   
N24      N      0.194910000000     0.498660000000     0.998980000000    -0.20997    
N25      N      0.996190000000     0.497310000000     0.803700000000    -0.140734   
N26      N      0.993040000000     0.497060000000     0.695960000000    -0.213341   
N27      N      0.997070000000     0.503350000000     0.198570000000    -0.141466   
N28      N      0.994450000000     0.504580000000     0.306250000000    -0.214343   
N29      N      0.005250000000     0.696170000000     0.507610000000    -0.139231   
N30      N      0.005130000000     0.803510000000     0.507560000000    -0.213003   
N31      N      0.003090000000     0.303670000000     0.494390000000    -0.143572   
N32      N      0.002760000000     0.196330000000     0.494850000000    -0.214256   
N33      N      0.695520000000     0.999740000000     0.507950000000    -0.142281   
N34      N      0.803490000000     0.998720000000     0.507000000000    -0.212197   
N35      N      0.197200000000     0.000450000000     0.507350000000    -0.140302   
N36      N      0.304670000000     0.000490000000     0.509700000000    -0.21257    
N37      N      0.995580000000     0.804470000000     0.002150000000    -0.142175   
N38      N      0.998390000000     0.696730000000     0.001470000000    -0.212685   
N39      N      0.995360000000     0.195410000000     0.004620000000    -0.142485   
N40      N      0.996020000000     0.303190000000     0.004700000000    -0.21232    
N41      N      0.803750000000     0.002270000000     0.999230000000    -0.142886   
N42      N      0.696420000000     0.003170000000     0.997670000000    -0.213155   
N43      N      0.303480000000     0.998580000000     0.996030000000    -0.142972   
N44      N      0.196300000000     0.999520000000     0.998450000000    -0.213736   
N45      N      0.004760000000     0.001670000000     0.806240000000    -0.143222   
N46      N      0.003230000000     0.003480000000     0.698190000000    -0.211209   
N47      N      0.002860000000     0.996880000000     0.307350000000    -0.141764   
N48      N      0.005170000000     0.997400000000     0.199060000000    -0.211864   
O1       O      0.999990000000     0.999890000000     0.002370000000    -0.371761   
O2       O      0.974110000000     0.970640000000     0.883080000000    -0.293425   
O3       O      0.026790000000     0.118740000000     0.974710000000    -0.285307   
O4       O      0.880560000000     0.023680000000     0.037010000000    -0.290925   
O5       O      0.033060000000     0.032390000000     0.884600000000    -0.28645    
O6       O      0.881080000000     0.977630000000     0.964690000000    -0.285991   
O7       O      0.966050000000     0.117320000000     0.034910000000    -0.286874   
O8       O      0.035430000000     0.968910000000     0.120170000000    -0.249043   
O9       O      0.118790000000     0.035820000000     0.977690000000    -0.259741   
O10      O      0.972650000000     0.026670000000     0.122070000000    -0.29981    
O11      O      0.119800000000     0.963550000000     0.023550000000    -0.288078   
O12      O      0.027150000000     0.881590000000     0.030760000000    -0.28567    
O13      O      0.965380000000     0.882110000000     0.971580000000    -0.288371   
O14      O      0.000840000000     0.999940000000     0.502800000000    -0.371788   
O15      O      0.031770000000     0.966890000000     0.385680000000    -0.283267   
O16      O      0.880350000000     0.027500000000     0.473380000000    -0.299699   
O17      O      0.969130000000     0.880500000000     0.531010000000    -0.287039   
O18      O      0.971340000000     0.027610000000     0.384440000000    -0.290336   
O19      O      0.037950000000     0.880640000000     0.480120000000    -0.258958   
O20      O      0.882050000000     0.969970000000     0.536390000000    -0.253784   
O21      O      0.028780000000     0.036070000000     0.619660000000    -0.250378   
O22      O      0.966560000000     0.118670000000     0.473520000000    -0.2969     
O23      O      0.974530000000     0.970040000000     0.621210000000    -0.288314   
O24      O      0.036010000000     0.119960000000     0.523510000000    -0.253996   
O25      O      0.119240000000     0.030200000000     0.535860000000    -0.273301   
O26      O      0.120760000000     0.971580000000     0.473880000000    -0.281133   
O27      O      0.999600000000     0.499900000000     0.001190000000    -0.373156   
O28      O      0.028460000000     0.379740000000     0.974210000000    -0.291522   
O29      O      0.972490000000     0.468250000000     0.121390000000    -0.283297   
O30      O      0.117780000000     0.527820000000     0.031670000000    -0.28775    
O31      O      0.966460000000     0.381810000000     0.032680000000    -0.256485   
O32      O      0.116600000000     0.469930000000     0.968400000000    -0.249537   
O33      O      0.025040000000     0.535720000000     0.121050000000    -0.277099   
O34      O      0.968280000000     0.619190000000     0.971410000000    -0.290719   
O35      O      0.881690000000     0.472900000000     0.032840000000    -0.291228   
O36      O      0.030790000000     0.619090000000     0.029330000000    -0.253762   
O37      O      0.882830000000     0.528960000000     0.968170000000    -0.252684   
O38      O      0.974330000000     0.533510000000     0.881200000000    -0.279165   
O39      O      0.022270000000     0.462700000000     0.881010000000    -0.27985    
O40      O      0.998570000000     0.499920000000     0.501110000000    -0.372721   
O41      O      0.966290000000     0.379380000000     0.519650000000    -0.293718   
O42      O      0.019380000000     0.467990000000     0.382430000000    -0.295952   
O43      O      0.880190000000     0.534930000000     0.475180000000    -0.257906   
O44      O      0.038630000000     0.382130000000     0.474090000000    -0.285944   
O45      O      0.879550000000     0.466550000000     0.526860000000    -0.293494   
O46      O      0.972550000000     0.539970000000     0.384590000000    -0.25499    
O47      O      0.040480000000     0.617450000000     0.527600000000    -0.27302    
O48      O      0.117340000000     0.481200000000     0.462510000000    -0.285106   
O49      O      0.967720000000     0.620730000000     0.482830000000    -0.271149   
O50      O      0.117260000000     0.517060000000     0.540470000000    -0.282202   
O51      O      0.019070000000     0.532360000000     0.619480000000    -0.256831   
O52      O      0.971420000000     0.460910000000     0.617870000000    -0.288933   
O53      O      0.499850000000     0.999980000000     0.002860000000    -0.371063   
O54      O      0.540820000000     0.883520000000     0.034860000000    -0.25595    
O55      O      0.381300000000     0.962750000000     0.974350000000    -0.28812    
O56      O      0.461580000000     0.029070000000     0.119520000000    -0.283613   
O57      O      0.471420000000     0.879300000000     0.984750000000    -0.298267   
O58      O      0.531270000000     0.979020000000     0.121700000000    -0.290243   
O59      O      0.379630000000     0.033430000000     0.022500000000    -0.288417   
O60      O      0.537190000000     0.118380000000     0.977860000000    -0.275382   
O61      O      0.474980000000     0.960070000000     0.885810000000    -0.287592   
O62      O      0.467170000000     0.119460000000     0.027210000000    -0.287048   
O63      O      0.517860000000     0.034430000000     0.884470000000    -0.250701   
O64      O      0.618190000000     0.022220000000     0.960760000000    -0.253226   
O65      O      0.620350000000     0.982390000000     0.036520000000    -0.292743   
O66      O      0.499810000000     0.000620000000     0.502700000000    -0.371365   
O67      O      0.382850000000     0.030990000000     0.538460000000    -0.251717   
O68      O      0.461500000000     0.980690000000     0.383010000000    -0.26037    
O69      O      0.529530000000     0.118770000000     0.468990000000    -0.285811   
O70      O      0.381230000000     0.971980000000     0.476740000000    -0.292862   
O71      O      0.470090000000     0.119420000000     0.530520000000    -0.284803   
O72      O      0.534480000000     0.025220000000     0.382840000000    -0.296872   
O73      O      0.617330000000     0.969330000000     0.537110000000    -0.283499   
O74      O      0.467990000000     0.883340000000     0.465900000000    -0.287422   
O75      O      0.618710000000     0.029320000000     0.475930000000    -0.293868   
O76      O      0.527210000000     0.881440000000     0.527650000000    -0.289044   
O77      O      0.521520000000     0.962660000000     0.622550000000    -0.285173   
O78      O      0.476620000000     0.035430000000     0.622610000000    -0.281372   
O79      O      0.500480000000     0.500280000000     0.000480000000    -0.368575   
O80      O      0.536580000000     0.380970000000     0.024920000000    -0.262654   
O81      O      0.380890000000     0.470770000000     0.968330000000    -0.287807   
O82      O      0.471130000000     0.529580000000     0.118130000000    -0.289901   
O83      O      0.467290000000     0.380210000000     0.974620000000    -0.292564   
O84      O      0.530390000000     0.467790000000     0.118080000000    -0.290729   
O85      O      0.380220000000     0.529140000000     0.030730000000    -0.291586   
O86      O      0.537180000000     0.620440000000     0.979720000000    -0.283844   
O87      O      0.473540000000     0.469470000000     0.882290000000    -0.285957   
O88      O      0.467350000000     0.619560000000     0.029220000000    -0.289519   
O89      O      0.528950000000     0.534880000000     0.883250000000    -0.283609   
O90      O      0.619670000000     0.529290000000     0.968660000000    -0.2874     
O91      O      0.620130000000     0.471650000000     0.031590000000    -0.285783   
O92      O      0.498790000000     0.500640000000     0.500120000000    -0.373217   
O93      O      0.378740000000     0.523870000000     0.466030000000    -0.287124   
O94      O      0.466530000000     0.381700000000     0.529770000000    -0.292261   
O95      O      0.533430000000     0.471480000000     0.381760000000    -0.289072   
O96      O      0.379950000000     0.475370000000     0.536720000000    -0.255998   
O97      O      0.470410000000     0.528960000000     0.381550000000    -0.256432   
O98      O      0.526620000000     0.382470000000     0.469080000000    -0.257228   
O99      O      0.618250000000     0.537160000000     0.523260000000    -0.270363   
O100     O      0.473620000000     0.470790000000     0.619710000000    -0.288707   
O101     O      0.618670000000     0.465200000000     0.476890000000    -0.282414   
O102     O      0.532580000000     0.532480000000     0.617880000000    -0.241403   
O103     O      0.525630000000     0.619540000000     0.527470000000    -0.246289   
O104     O      0.464080000000     0.619000000000     0.468330000000    -0.28448    
Zn1      Zn     0.956240000000     0.958510000000     0.957110000000     0.464052   
Zn2      Zn     0.043480000000     0.045140000000     0.961080000000     0.472481   
Zn3      Zn     0.955920000000     0.040700000000     0.047750000000     0.463377   
Zn4      Zn     0.044650000000     0.955280000000     0.043260000000     0.473676   
Zn5      Zn     0.046160000000     0.955950000000     0.461620000000     0.472713   
Zn6      Zn     0.955740000000     0.042270000000     0.459780000000     0.460025   
Zn7      Zn     0.957820000000     0.956190000000     0.546370000000     0.47321    
Zn8      Zn     0.044320000000     0.045480000000     0.544130000000     0.482074   
Zn9      Zn     0.040750000000     0.454530000000     0.957170000000     0.469059   
Zn10     Zn     0.956490000000     0.457220000000     0.045850000000     0.472451   
Zn11     Zn     0.042430000000     0.544020000000     0.044780000000     0.469745   
Zn12     Zn     0.957850000000     0.544010000000     0.956680000000     0.474885   
Zn13     Zn     0.955200000000     0.453010000000     0.540670000000     0.464528   
Zn14     Zn     0.042460000000     0.458820000000     0.456420000000     0.460378   
Zn15     Zn     0.955950000000     0.547420000000     0.461620000000     0.477132   
Zn16     Zn     0.042820000000     0.540710000000     0.545710000000     0.469915   
Zn17     Zn     0.546690000000     0.961790000000     0.047530000000     0.467615   
Zn18     Zn     0.458090000000     0.951920000000     0.962760000000     0.466163   
Zn19     Zn     0.453470000000     0.044190000000     0.042280000000     0.46248    
Zn20     Zn     0.542300000000     0.042600000000     0.957930000000     0.472859   
Zn21     Zn     0.458830000000     0.045190000000     0.547380000000     0.474897   
Zn22     Zn     0.454530000000     0.960130000000     0.458110000000     0.471125   
Zn23     Zn     0.544450000000     0.042330000000     0.458770000000     0.46203    
Zn24     Zn     0.540620000000     0.955070000000     0.546570000000     0.462494   
Zn25     Zn     0.545260000000     0.456350000000     0.042490000000     0.46938    
Zn26     Zn     0.456750000000     0.456180000000     0.957650000000     0.461908   
Zn27     Zn     0.455770000000     0.543480000000     0.043030000000     0.460229   
Zn28     Zn     0.544700000000     0.545280000000     0.959070000000     0.465356   
Zn29     Zn     0.453980000000     0.542090000000     0.455750000000     0.47325    
Zn30     Zn     0.455830000000     0.458090000000     0.545200000000     0.468303   
Zn31     Zn     0.543360000000     0.456670000000     0.458160000000     0.470635   
Zn32     Zn     0.542700000000     0.545820000000     0.541140000000     0.481661   


