data_structure

_audit_creation_method RASPA-1.0
_audit_creation_date 2023-5-19
_audit_author_name 'Poobodin Mano'

_cell_length_a    25.9151
_cell_length_b    25.8362
_cell_length_c    25.8345
_cell_angle_alpha 90
_cell_angle_beta  90
_cell_angle_gamma 90
_cell_volume      17297.4

_symmetry_cell_setting          triclinic
_symmetry_space_group_name_Hall 'P 1'
_symmetry_space_group_name_H-M  'P 1'
_symmetry_Int_Tables_number     1

_symmetry_equiv_pos_as_xyz 'x,y,z'

loop_
_atom_site_label
_atom_site_type_symbol
_atom_site_fract_x
_atom_site_fract_y
_atom_site_fract_z
_atom_site_charge
C1       C      0.984570000000     0.988980000000     0.140950000000     0.364834   
C2       C      0.134620000000     0.002110000000     0.003110000000     0.368578   
C3       C      0.998580000000     0.852290000000     0.987360000000     0.368373   
C4       C      0.988540000000     0.995080000000     0.854550000000     0.366562   
C5       C      0.996310000000     0.138470000000     0.995250000000     0.365534   
C6       C      0.849040000000     0.995660000000     0.999280000000     0.365049   
C7       C      0.986790000000     0.991100000000     0.355250000000     0.364426   
C8       C      0.133930000000     0.994240000000     0.491080000000     0.367378   
C9       C      0.993130000000     0.139330000000     0.504840000000     0.365493   
C10      C      0.987630000000     0.996030000000     0.640680000000     0.36783    
C11      C      0.988750000000     0.852080000000     0.504710000000     0.367837   
C12      C      0.848250000000     0.998430000000     0.489920000000     0.372966   
C13      C      0.000500000000     0.352290000000     0.993880000000     0.368589   
C14      C      0.995760000000     0.499700000000     0.140980000000     0.364899   
C15      C      0.137850000000     0.489790000000     0.003530000000     0.369664   
C16      C      0.999780000000     0.638600000000     0.989510000000     0.364938   
C17      C      0.852330000000     0.493840000000     0.006500000000     0.36634    
C18      C      0.993460000000     0.500310000000     0.853860000000     0.365608   
C19      C      0.992670000000     0.352910000000     0.507090000000     0.367292   
C20      C      0.002030000000     0.497780000000     0.355130000000     0.36552    
C21      C      0.853040000000     0.494410000000     0.488710000000     0.369661   
C22      C      0.989710000000     0.638420000000     0.503590000000     0.369089   
C23      C      0.139880000000     0.495760000000     0.489550000000     0.367849   
C24      C      0.999340000000     0.499830000000     0.639770000000     0.365901   
C25      C      0.347680000000     0.001230000000     0.999640000000     0.370942   
C26      C      0.490800000000     0.138480000000     0.990280000000     0.370913   
C27      C      0.497070000000     0.990160000000     0.133260000000     0.367089   
C28      C      0.635680000000     0.992050000000     0.994790000000     0.369446   
C29      C      0.493210000000     0.996860000000     0.850600000000     0.366687   
C30      C      0.482040000000     0.851530000000     0.985470000000     0.367963   
C31      C      0.348520000000     0.994780000000     0.486520000000     0.368608   
C32      C      0.493990000000     0.987480000000     0.348200000000     0.372016   
C33      C      0.495100000000     0.137050000000     0.489830000000     0.371679   
C34      C      0.634170000000     0.993870000000     0.490150000000     0.372014   
C35      C      0.490920000000     0.850800000000     0.499990000000     0.371935   
C36      C      0.490580000000     0.999180000000     0.635380000000     0.36913    
C37      C      0.351000000000     0.489970000000     0.000600000000     0.368891   
C38      C      0.492530000000     0.352030000000     0.989250000000     0.367462   
C39      C      0.496420000000     0.491570000000     0.850600000000     0.364667   
C40      C      0.639070000000     0.496580000000     0.000800000000     0.365585   
C41      C      0.500490000000     0.495580000000     0.134890000000     0.367204   
C42      C      0.485220000000     0.637610000000     0.985670000000     0.36564    
C43      C      0.353030000000     0.496260000000     0.486520000000     0.369401   
C44      C      0.498610000000     0.351940000000     0.494820000000     0.36955    
C45      C      0.496230000000     0.496000000000     0.348790000000     0.368353   
C46      C      0.639810000000     0.494440000000     0.488780000000     0.368409   
C47      C      0.492290000000     0.491110000000     0.636450000000     0.367777   
C48      C      0.498390000000     0.636130000000     0.500710000000     0.370266   
C49      C      0.538820000000     0.483090000000     0.769350000000     0.0325148  
C50      C      0.448940000000     0.497060000000     0.772230000000     0.0216947  
C51      C      0.537270000000     0.485170000000     0.715360000000     0.0333524  
C52      C      0.446410000000     0.495420000000     0.717940000000     0.0647501  
C53      C      0.489050000000     0.539990000000     0.268150000000     0.0325576  
C54      C      0.508880000000     0.450900000000     0.269890000000     0.0216605  
C55      C      0.493360000000     0.539840000000     0.214250000000     0.0333503  
C56      C      0.510080000000     0.449630000000     0.215660000000     0.0652611  
C57      C      0.528420000000     0.717830000000     0.531650000000     0.0328589  
C58      C      0.457780000000     0.713860000000     0.474520000000     0.0211658  
C59      C      0.525590000000     0.771820000000     0.531090000000     0.0304878  
C60      C      0.453720000000     0.767800000000     0.474500000000     0.0625448  
C61      C      0.465910000000     0.271110000000     0.524180000000     0.0325868  
C62      C      0.533870000000     0.272970000000     0.463810000000     0.0212759  
C63      C      0.465390000000     0.217280000000     0.522020000000     0.0302514  
C64      C      0.534000000000     0.218760000000     0.461390000000     0.0623026  
C65      C      0.527440000000     0.718670000000     0.989440000000     0.0326366  
C66      C      0.437410000000     0.715920000000     0.976340000000     0.0220272  
C67      C      0.526270000000     0.772460000000     0.987320000000     0.0333646  
C68      C      0.435280000000     0.770420000000     0.978410000000     0.064865   
C69      C      0.447440000000     0.272210000000     0.995890000000     0.0324984  
C70      C      0.536880000000     0.272550000000     0.978620000000     0.0214889  
C71      C      0.447260000000     0.218210000000     0.993780000000     0.0342702  
C72      C      0.537830000000     0.218310000000     0.980580000000     0.066331   
C73      C      0.524490000000     0.967430000000     0.769120000000     0.0325646  
C74      C      0.460430000000     0.031870000000     0.772130000000     0.0213939  
C75      C      0.523130000000     0.968670000000     0.715250000000     0.0300323  
C76      C      0.458770000000     0.033720000000     0.717880000000     0.0622442  
C77      C      0.525240000000     0.022470000000     0.214730000000     0.0328364  
C78      C      0.470130000000     0.950150000000     0.211520000000     0.0214014  
C79      C      0.523780000000     0.021130000000     0.268580000000     0.0307501  
C80      C      0.468480000000     0.948150000000     0.265740000000     0.0621454  
C81      C      0.719960000000     0.503390000000     0.531830000000     0.0323543  
C82      C      0.718620000000     0.485620000000     0.442270000000     0.0218747  
C83      C      0.773590000000     0.501050000000     0.531560000000     0.0332816  
C84      C      0.772880000000     0.486950000000     0.440890000000     0.0648475  
C85      C      0.219830000000     0.452060000000     0.479030000000     0.0326     
C86      C      0.218730000000     0.542320000000     0.492790000000     0.0219002  
C87      C      0.273680000000     0.452500000000     0.480740000000     0.0338203  
C88      C      0.272850000000     0.543770000000     0.490380000000     0.0653907  
C89      C      0.718800000000     0.450870000000     0.998750000000     0.0317003  
C90      C      0.718280000000     0.540540000000     0.015740000000     0.0214545  
C91      C      0.772580000000     0.450210000000     0.003340000000     0.0339168  
C92      C      0.772520000000     0.541000000000     0.016300000000     0.0657975  
C93      C      0.270270000000     0.491010000000     0.957770000000     0.0323115  
C94      C      0.272880000000     0.484490000000     0.048810000000     0.0220697  
C95      C      0.216660000000     0.488460000000     0.959010000000     0.0331699  
C96      C      0.218620000000     0.485820000000     0.050710000000     0.0647565  
C97      C      0.951600000000     0.508500000000     0.772270000000     0.0326211  
C98      C      0.041750000000     0.496720000000     0.775940000000     0.0221183  
C99      C      0.953620000000     0.505860000000     0.718300000000     0.0331847  
C100     C      0.044660000000     0.497700000000     0.721670000000     0.0650207  
C101     C      0.990410000000     0.455150000000     0.221320000000     0.0323399  
C102     C      0.008540000000     0.544570000000     0.220340000000     0.0222703  
C103     C      0.995260000000     0.454660000000     0.275140000000     0.0328263  
C104     C      0.010150000000     0.545160000000     0.274710000000     0.0651     
C105     C      0.033050000000     0.772010000000     0.500030000000     0.0331326  
C106     C      0.943170000000     0.772840000000     0.514550000000     0.0221095  
C107     C      0.032910000000     0.718150000000     0.502010000000     0.0341292  
C108     C      0.942020000000     0.718460000000     0.512390000000     0.0655571  
C109     C      0.948530000000     0.219610000000     0.499920000000     0.0322644  
C110     C      0.037360000000     0.218390000000     0.519960000000     0.0218585  
C111     C      0.948350000000     0.273580000000     0.503660000000     0.0341562  
C112     C      0.038460000000     0.272750000000     0.519400000000     0.0666357  
C113     C      0.715170000000     0.965380000000     0.522100000000     0.032896   
C114     C      0.712250000000     0.025610000000     0.453800000000     0.0219991  
C115     C      0.768720000000     0.967080000000     0.521260000000     0.0300423  
C116     C      0.766330000000     0.027600000000     0.452370000000     0.0620077  
C117     C      0.215100000000     0.024850000000     0.521110000000     0.0322038  
C118     C      0.212190000000     0.965590000000     0.452050000000     0.0211806  
C119     C      0.268770000000     0.024750000000     0.519140000000     0.0303087  
C120     C      0.266390000000     0.965230000000     0.449470000000     0.0617634  
C121     C      0.044330000000     0.719240000000     0.993980000000     0.0320251  
C122     C      0.955370000000     0.717410000000     0.974700000000     0.0207308  
C123     C      0.043940000000     0.773300000000     0.990490000000     0.0343994  
C124     C      0.953810000000     0.771640000000     0.974890000000     0.0664766  
C125     C      0.991440000000     0.218670000000     0.949930000000     0.0322022  
C126     C      0.010600000000     0.217740000000     0.039190000000     0.0217536  
C127     C      0.995350000000     0.272670000000     0.949670000000     0.0333898  
C128     C      0.010900000000     0.272000000000     0.040100000000     0.0659922  
C129     C      0.768230000000     0.038800000000     0.993600000000     0.0326088  
C130     C      0.770750000000     0.948110000000     0.003720000000     0.0213726  
C131     C      0.714390000000     0.037340000000     0.994500000000     0.0336579  
C132     C      0.716660000000     0.945820000000     0.000630000000     0.065744   
C133     C      0.213980000000     0.999290000000     0.958000000000     0.0317349  
C134     C      0.214100000000     0.010700000000     0.048590000000     0.0219949  
C135     C      0.267590000000     0.001100000000     0.957480000000     0.033929   
C136     C      0.268380000000     0.008840000000     0.048920000000     0.064881   
C137     C      0.031850000000     0.988250000000     0.773980000000     0.0327724  
C138     C      0.941930000000     0.002410000000     0.775670000000     0.022122   
C139     C      0.031380000000     0.991150000000     0.720120000000     0.0337397  
C140     C      0.940480000000     0.001590000000     0.721310000000     0.0652843  
C141     C      0.990670000000     0.033340000000     0.221020000000     0.0324978  
C142     C      0.973520000000     0.943750000000     0.220690000000     0.0218534  
C143     C      0.989490000000     0.033610000000     0.274900000000     0.0329989  
C144     C      0.975690000000     0.942970000000     0.275190000000     0.0639791  
H1       H      0.573330000000     0.480630000000     0.694470000000     0.0424976  
H2       H      0.575920000000     0.477950000000     0.788080000000     0.0440903  
H3       H      0.413490000000     0.502520000000     0.794050000000     0.0491193  
H4       H      0.486790000000     0.575950000000     0.193830000000     0.0432448  
H5       H      0.480690000000     0.576360000000     0.287360000000     0.0449058  
H6       H      0.516110000000     0.415320000000     0.291170000000     0.049618   
H7       H      0.553950000000     0.792570000000     0.553940000000     0.0465188  
H8       H      0.558270000000     0.699700000000     0.554800000000     0.0451967  
H9       H      0.429650000000     0.691780000000     0.452430000000     0.0510966  
H10      H      0.437130000000     0.197760000000     0.546050000000     0.0467856  
H11      H      0.438270000000     0.289970000000     0.549440000000     0.0459746  
H12      H      0.561610000000     0.294270000000     0.440500000000     0.0502935  
H13      H      0.562570000000     0.792990000000     0.991600000000     0.0430349  
H14      H      0.564590000000     0.699920000000     0.994320000000     0.0439747  
H15      H      0.401940000000     0.694050000000     0.971290000000     0.0482318  
H16      H      0.410890000000     0.198200000000     0.999630000000     0.0417428  
H17      H      0.411160000000     0.292080000000     0.002480000000     0.0445944  
H18      H      0.572720000000     0.293350000000     0.971840000000     0.0487731  
H19      H      0.548970000000     0.942380000000     0.695260000000     0.0472116  
H20      H      0.551010000000     0.940670000000     0.787520000000     0.0460248  
H21      H      0.435290000000     0.057610000000     0.793880000000     0.0509228  
H22      H      0.545860000000     0.050580000000     0.288670000000     0.0472536  
H23      H      0.548090000000     0.052490000000     0.196410000000     0.0462082  
H24      H      0.448740000000     0.921260000000     0.189690000000     0.0512567  
H25      H      0.793550000000     0.507210000000     0.567990000000     0.0427739  
H26      H      0.700760000000     0.510150000000     0.568520000000     0.04438    
H27      H      0.697410000000     0.478630000000     0.406650000000     0.0489347  
H28      H      0.293880000000     0.415950000000     0.476460000000     0.0417395  
H29      H      0.200390000000     0.415160000000     0.474420000000     0.04431    
H30      H      0.197590000000     0.578230000000     0.498510000000     0.0481012  
H31      H      0.792460000000     0.413610000000     0.998160000000     0.0413203  
H32      H      0.699100000000     0.414560000000     0.991370000000     0.0437891  
H33      H      0.697510000000     0.576630000000     0.021620000000     0.0486373  
H34      H      0.196220000000     0.490070000000     0.922370000000     0.0429846  
H35      H      0.288990000000     0.493320000000     0.920280000000     0.0442425  
H36      H      0.294590000000     0.482050000000     0.084730000000     0.0490131  
H37      H      0.917630000000     0.509360000000     0.697100000000     0.0426934  
H38      H      0.914230000000     0.512850000000     0.790680000000     0.0441252  
H39      H      0.077150000000     0.492270000000     0.798090000000     0.048872   
H40      H      0.989570000000     0.418130000000     0.295080000000     0.0432893  
H41      H      0.982610000000     0.418780000000     0.201870000000     0.045152   
H42      H      0.014970000000     0.580450000000     0.199330000000     0.0497952  
H43      H      0.069460000000     0.698210000000     0.497060000000     0.0425219  
H44      H      0.069680000000     0.791600000000     0.494560000000     0.0439435  
H45      H      0.907300000000     0.793920000000     0.520220000000     0.0487863  
H46      H      0.912300000000     0.293920000000     0.497030000000     0.0409264  
H47      H      0.912410000000     0.200080000000     0.491640000000     0.0441996  
H48      H      0.072880000000     0.197240000000     0.527300000000     0.0485211  
H49      H      0.788460000000     0.942880000000     0.549270000000     0.047531   
H50      H      0.696840000000     0.940250000000     0.550260000000     0.045281   
H51      H      0.690560000000     0.049060000000     0.426450000000     0.0502148  
H52      H      0.288600000000     0.048910000000     0.547130000000     0.0465025  
H53      H      0.196790000000     0.049110000000     0.550030000000     0.0455965  
H54      H      0.190490000000     0.942150000000     0.424710000000     0.0500549  
H55      H      0.079820000000     0.793940000000     0.997050000000     0.0417206  
H56      H      0.080650000000     0.700000000000     0.002030000000     0.0448041  
H57      H      0.919870000000     0.696140000000     0.967560000000     0.0500832  
H58      H      0.989100000000     0.292900000000     0.913390000000     0.0418861  
H59      H      0.983380000000     0.199070000000     0.913690000000     0.0445544  
H60      H      0.017580000000     0.196800000000     0.075020000000     0.0493261  
H61      H      0.693700000000     0.073710000000     0.991090000000     0.0424762  
H62      H      0.787050000000     0.076160000000     0.990350000000     0.0441031  
H63      H      0.792380000000     0.912310000000     0.008030000000     0.049254   
H64      H      0.286880000000     0.997260000000     0.920380000000     0.0429699  
H65      H      0.194160000000     0.995160000000     0.921240000000     0.0447524  
H66      H      0.193470000000     0.015260000000     0.084940000000     0.0486759  
H67      H      0.067790000000     0.986730000000     0.699820000000     0.0424276  
H68      H      0.068680000000     0.982840000000     0.793170000000     0.044557   
H69      H      0.906210000000     0.007850000000     0.797060000000     0.0489507  
H70      H      0.995880000000     0.070270000000     0.294390000000     0.0436829  
H71      H      0.997010000000     0.069900000000     0.201350000000     0.044643   
H72      H      0.966430000000     0.907900000000     0.199860000000     0.0490793  
N1       N      0.494890000000     0.490380000000     0.797600000000    -0.163845   
N2       N      0.491310000000     0.490340000000     0.689550000000    -0.169742   
N3       N      0.497480000000     0.495670000000     0.295790000000    -0.164664   
N4       N      0.502130000000     0.494670000000     0.187910000000    -0.169836   
N5       N      0.495250000000     0.689060000000     0.502440000000    -0.165411   
N6       N      0.489340000000     0.797370000000     0.501710000000    -0.169085   
N7       N      0.499650000000     0.298900000000     0.494630000000    -0.165449   
N8       N      0.498680000000     0.190450000000     0.490440000000    -0.168876   
N9       N      0.483210000000     0.690510000000     0.983450000000    -0.164286   
N10      N      0.480420000000     0.798500000000     0.983550000000    -0.169857   
N11      N      0.492120000000     0.299120000000     0.987700000000    -0.164483   
N12      N      0.492400000000     0.191340000000     0.988030000000    -0.171129   
N13      N      0.492900000000     0.998690000000     0.797520000000    -0.164808   
N14      N      0.490240000000     0.001160000000     0.688910000000    -0.16805    
N15      N      0.497820000000     0.987520000000     0.186260000000    -0.164873   
N16      N      0.494960000000     0.984860000000     0.294750000000    -0.169077   
N17      N      0.692610000000     0.494680000000     0.487480000000    -0.164865   
N18      N      0.800200000000     0.494020000000     0.486300000000    -0.170391   
N19      N      0.192600000000     0.496710000000     0.486650000000    -0.164671   
N20      N      0.300210000000     0.498100000000     0.485450000000    -0.170401   
N21      N      0.691820000000     0.495970000000     0.005130000000    -0.163753   
N22      N      0.799520000000     0.495300000000     0.009740000000    -0.169725   
N23      N      0.298250000000     0.488520000000     0.002540000000    -0.164972   
N24      N      0.190680000000     0.487610000000     0.005140000000    -0.170164   
N25      N      0.995440000000     0.502360000000     0.800900000000    -0.164345   
N26      N      0.999880000000     0.501250000000     0.692880000000    -0.169444   
N27      N      0.997630000000     0.499940000000     0.194030000000    -0.163904   
N28      N      0.003350000000     0.499610000000     0.302040000000    -0.16892    
N29      N      0.988340000000     0.799180000000     0.506790000000    -0.164877   
N30      N      0.987550000000     0.691320000000     0.506330000000    -0.170473   
N31      N      0.992950000000     0.192230000000     0.508350000000    -0.164064   
N32      N      0.993410000000     0.300100000000     0.511080000000    -0.170445   
N33      N      0.686980000000     0.994860000000     0.488700000000    -0.16629    
N34      N      0.795010000000     0.998260000000     0.487070000000    -0.169338   
N35      N      0.186820000000     0.994900000000     0.488020000000    -0.165003   
N36      N      0.295150000000     0.994550000000     0.484270000000    -0.16835    
N37      N      0.000070000000     0.691530000000     0.985960000000    -0.16327    
N38      N      0.998570000000     0.799450000000     0.983310000000    -0.170697   
N39      N      0.999410000000     0.191420000000     0.994620000000    -0.164238   
N40      N      0.002930000000     0.299340000000     0.994810000000    -0.17024    
N41      N      0.796200000000     0.994320000000     0.999080000000    -0.164188   
N42      N      0.688560000000     0.991100000000     0.996520000000    -0.170613   
N43      N      0.187370000000     0.004300000000     0.003410000000    -0.164619   
N44      N      0.294940000000     0.003970000000     0.002690000000    -0.170573   
N45      N      0.987330000000     0.994870000000     0.801590000000    -0.164777   
N46      N      0.985910000000     0.996430000000     0.693680000000    -0.170368   
N47      N      0.982540000000     0.988550000000     0.193990000000    -0.164137   
N48      N      0.983870000000     0.988560000000     0.302190000000    -0.169001   
O1       O      0.991960000000     0.995140000000     0.997600000000    -0.37061    
O2       O      0.962370000000     0.953440000000     0.114580000000    -0.293534   
O3       O      0.108530000000     0.023190000000     0.039410000000    -0.295678   
O4       O      0.033780000000     0.878910000000     0.965210000000    -0.293916   
O5       O      0.009350000000     0.025060000000     0.118350000000    -0.299879   
O6       O      0.963390000000     0.874180000000     0.013870000000    -0.297977   
O7       O      0.112020000000     0.978650000000     0.966180000000    -0.301779   
O8       O      0.953520000000     0.018990000000     0.879770000000    -0.296585   
O9       O      0.019250000000     0.113260000000     0.030950000000    -0.298125   
O10      O      0.025320000000     0.972320000000     0.878170000000    -0.297599   
O11      O      0.969780000000     0.114820000000     0.960960000000    -0.295414   
O12      O      0.872760000000     0.032400000000     0.976270000000    -0.295152   
O13      O      0.874100000000     0.959250000000     0.021230000000    -0.297001   
O14      O      0.991050000000     0.995660000000     0.498050000000    -0.371362   
O15      O      0.969120000000     0.030930000000     0.378710000000    -0.295367   
O16      O      0.107730000000     0.965910000000     0.460250000000    -0.297987   
O17      O      0.026060000000     0.113080000000     0.530610000000    -0.295762   
O18      O      0.008440000000     0.954620000000     0.380540000000    -0.293646   
O19      O      0.960710000000     0.116760000000     0.475330000000    -0.296865   
O20      O      0.111210000000     0.021640000000     0.525190000000    -0.300339   
O21      O      0.953080000000     0.971700000000     0.615330000000    -0.296552   
O22      O      0.023300000000     0.875070000000     0.478150000000    -0.298185   
O23      O      0.024520000000     0.019110000000     0.617360000000    -0.296303   
O24      O      0.954010000000     0.877910000000     0.528290000000    -0.297576   
O25      O      0.870780000000     0.969100000000     0.522380000000    -0.303593   
O26      O      0.875150000000     0.027830000000     0.461100000000    -0.29841    
O27      O      0.995290000000     0.495490000000     0.997550000000    -0.3696     
O28      O      0.022970000000     0.377500000000     0.957780000000    -0.29429    
O29      O      0.972430000000     0.463090000000     0.117420000000    -0.295749   
O30      O      0.113480000000     0.517970000000     0.035830000000    -0.295094   
O31      O      0.975490000000     0.375740000000     0.029240000000    -0.298022   
O32      O      0.113850000000     0.466040000000     0.967580000000    -0.298575   
O33      O      0.018780000000     0.535230000000     0.115520000000    -0.295376   
O34      O      0.964190000000     0.613030000000     0.966910000000    -0.297895   
O35      O      0.877690000000     0.458370000000     0.029920000000    -0.292656   
O36      O      0.033930000000     0.615380000000     0.016570000000    -0.294132   
O37      O      0.875410000000     0.527390000000     0.978750000000    -0.296818   
O38      O      0.956290000000     0.521620000000     0.878530000000    -0.293748   
O39      O      0.029130000000     0.476650000000     0.878120000000    -0.300495   
O40      O      0.996320000000     0.495560000000     0.497390000000    -0.371321   
O41      O      0.958790000000     0.379120000000     0.531750000000    -0.293208   
O42      O      0.020690000000     0.458580000000     0.379030000000    -0.293499   
O43      O      0.879270000000     0.516700000000     0.453440000000    -0.294886   
O44      O      0.025510000000     0.375080000000     0.477860000000    -0.296283   
O45      O      0.875400000000     0.474480000000     0.527840000000    -0.300015   
O46      O      0.979770000000     0.534160000000     0.379920000000    -0.2956     
O47      O      0.026590000000     0.614670000000     0.525960000000    -0.298372   
O48      O      0.114530000000     0.460450000000     0.466210000000    -0.29596    
O49      O      0.956720000000     0.613760000000     0.476490000000    -0.294506   
O50      O      0.116560000000     0.529960000000     0.516280000000    -0.298937   
O51      O      0.034310000000     0.523320000000     0.613950000000    -0.292725   
O52      O      0.962920000000     0.475800000000     0.616770000000    -0.296808   
O53      O      0.491570000000     0.994950000000     0.992080000000    -0.371238   
O54      O      0.372970000000     0.976070000000     0.033530000000    -0.297255   
O55      O      0.455880000000     0.114080000000     0.965510000000    -0.297433   
O56      O      0.522870000000     0.025200000000     0.109690000000    -0.296186   
O57      O      0.370870000000     0.022010000000     0.961450000000    -0.299908   
O58      O      0.469290000000     0.958190000000     0.107990000000    -0.300711   
O59      O      0.524420000000     0.114290000000     0.016860000000    -0.297738   
O60      O      0.611250000000     0.958700000000     0.967920000000    -0.295552   
O61      O      0.462250000000     0.025750000000     0.875860000000    -0.300689   
O62      O      0.611430000000     0.027080000000     0.019480000000    -0.29788    
O63      O      0.523820000000     0.966070000000     0.874300000000    -0.296056   
O64      O      0.518910000000     0.875170000000     0.962920000000    -0.298636   
O65      O      0.448940000000     0.876490000000     0.012220000000    -0.29351    
O66      O      0.491860000000     0.993850000000     0.492230000000    -0.373197   
O67      O      0.371840000000     0.026100000000     0.516860000000    -0.298354   
O68      O      0.465440000000     0.957320000000     0.374470000000    -0.300475   
O69      O      0.523160000000     0.110480000000     0.459540000000    -0.301734   
O70      O      0.374790000000     0.963240000000     0.459480000000    -0.299422   
O71      O      0.463560000000     0.114000000000     0.520010000000    -0.299644   
O72      O      0.521560000000     0.020920000000     0.371630000000    -0.302025   
O73      O      0.610870000000     0.964960000000     0.522660000000    -0.300432   
O74      O      0.462510000000     0.875470000000     0.468400000000    -0.301747   
O75      O      0.608650000000     0.022260000000     0.459110000000    -0.303558   
O76      O      0.521970000000     0.875680000000     0.529150000000    -0.299398   
O77      O      0.522670000000     0.969740000000     0.612200000000    -0.299623   
O78      O      0.459040000000     0.026110000000     0.608870000000    -0.297664   
O79      O      0.494940000000     0.494840000000     0.992960000000    -0.370261   
O80      O      0.373160000000     0.510890000000     0.961920000000    -0.300715   
O81      O      0.459200000000     0.376010000000     0.016580000000    -0.296396   
O82      O      0.532650000000     0.468350000000     0.875050000000    -0.29339    
O83      O      0.377660000000     0.470150000000     0.037020000000    -0.297195   
O84      O      0.460890000000     0.515480000000     0.875030000000    -0.29863    
O85      O      0.527330000000     0.376810000000     0.964620000000    -0.298142   
O86      O      0.612890000000     0.531600000000     0.023770000000    -0.295663   
O87      O      0.478500000000     0.458530000000     0.110890000000    -0.296679   
O88      O      0.616460000000     0.462320000000     0.973460000000    -0.297135   
O89      O      0.519040000000     0.534300000000     0.110270000000    -0.294665   
O90      O      0.520930000000     0.616140000000     0.011970000000    -0.299065   
O91      O      0.451630000000     0.610280000000     0.961840000000    -0.294278   
O92      O      0.496420000000     0.494190000000     0.492970000000    -0.370636   
O93      O      0.379270000000     0.529620000000     0.461450000000    -0.296407   
O94      O      0.466310000000     0.375840000000     0.523420000000    -0.299192   
O95      O      0.519820000000     0.460610000000     0.373630000000    -0.301577   
O96      O      0.375390000000     0.461370000000     0.513270000000    -0.297291   
O97      O      0.472350000000     0.531790000000     0.373010000000    -0.296867   
O98      O      0.528980000000     0.377000000000     0.465150000000    -0.301627   
O99      O      0.616340000000     0.518430000000     0.524910000000    -0.299405   
O100     O      0.457270000000     0.467850000000     0.610570000000    -0.293548   
O101     O      0.614540000000     0.469620000000     0.454450000000    -0.298195   
O102     O      0.529030000000     0.514560000000     0.613500000000    -0.297957   
O103     O      0.529290000000     0.611480000000     0.530410000000    -0.294988   
O104     O      0.469660000000     0.611830000000     0.469070000000    -0.30555    
S1       S      0.391600000000     0.505200000000     0.691630000000     0.0141557  
S2       S      0.526090000000     0.396390000000     0.188790000000     0.0143722  
S3       S      0.405160000000     0.791350000000     0.444560000000     0.0198945  
S4       S      0.576940000000     0.193360000000     0.425080000000     0.0190397  
S5       S      0.380690000000     0.797480000000     0.969920000000     0.012878   
S6       S      0.591390000000     0.190140000000     0.968990000000     0.0097819  
S7       S      0.420450000000     0.075320000000     0.693200000000     0.0188201  
S8       S      0.436280000000     0.901590000000     0.290360000000     0.0206405  
S9       S      0.800410000000     0.474820000000     0.387060000000     0.0141432  
S10      S      0.300310000000     0.598300000000     0.499270000000     0.0112116  
S11      S      0.800540000000     0.594440000000     0.029150000000     0.0107713  
S12      S      0.191730000000     0.480170000000     0.105910000000     0.0143949  
S13      S      0.099910000000     0.488800000000     0.695950000000     0.0143103  
S14      S      0.025200000000     0.598360000000     0.302150000000     0.0151808  
S15      S      0.888080000000     0.690370000000     0.521900000000     0.0123843  
S16      S      0.091700000000     0.300660000000     0.532830000000     0.00958069 
S17      S      0.791220000000     0.063930000000     0.409110000000     0.0202327  
S18      S      0.291260000000     0.931780000000     0.403930000000     0.0196106  
S19      S      0.900380000000     0.798780000000     0.960540000000     0.0106501  
S20      S      0.025540000000     0.299590000000     0.093380000000     0.0116613  
S21      S      0.690000000000     0.890590000000     0.007300000000     0.0107893  
S22      S      0.296880000000     0.017410000000     0.102920000000     0.0139101  
S23      S      0.886300000000     0.012230000000     0.694050000000     0.0137123  
S24      S      0.963530000000     0.889460000000     0.303390000000     0.0155176  
Zn1      Zn     0.949440000000     0.946830000000     0.036390000000     0.454645   
Zn2      Zn     0.031270000000     0.037670000000     0.045370000000     0.456532   
Zn3      Zn     0.039410000000     0.957060000000     0.953320000000     0.456263   
Zn4      Zn     0.947990000000     0.039410000000     0.955160000000     0.452315   
Zn5      Zn     0.951050000000     0.042050000000     0.454320000000     0.455756   
Zn6      Zn     0.031620000000     0.949140000000     0.455320000000     0.45499    
Zn7      Zn     0.037090000000     0.036010000000     0.541810000000     0.455373   
Zn8      Zn     0.943910000000     0.954690000000     0.539890000000     0.45978    
Zn9      Zn     0.038660000000     0.454810000000     0.951490000000     0.455991   
Zn10     Zn     0.955650000000     0.449450000000     0.042080000000     0.45316    
Zn11     Zn     0.038850000000     0.540290000000     0.040010000000     0.453653   
Zn12     Zn     0.948750000000     0.537520000000     0.956100000000     0.453768   
Zn13     Zn     0.949540000000     0.457210000000     0.542190000000     0.454011   
Zn14     Zn     0.037760000000     0.448440000000     0.455800000000     0.453447   
Zn15     Zn     0.954220000000     0.538930000000     0.453130000000     0.455901   
Zn16     Zn     0.042510000000     0.539340000000     0.537310000000     0.456606   
Zn17     Zn     0.446960000000     0.952100000000     0.034580000000     0.457189   
Zn18     Zn     0.446150000000     0.037770000000     0.950290000000     0.457832   
Zn19     Zn     0.536000000000     0.039380000000     0.033580000000     0.457101   
Zn20     Zn     0.535550000000     0.950110000000     0.950400000000     0.454537   
Zn21     Zn     0.447270000000     0.038700000000     0.533050000000     0.456926   
Zn22     Zn     0.449990000000     0.949020000000     0.449890000000     0.464598   
Zn23     Zn     0.534260000000     0.035510000000     0.446670000000     0.465243   
Zn24     Zn     0.535720000000     0.952150000000     0.537630000000     0.457608   
Zn25     Zn     0.446550000000     0.532170000000     0.949370000000     0.455444   
Zn26     Zn     0.453650000000     0.451150000000     0.037900000000     0.456249   
Zn27     Zn     0.542020000000     0.452320000000     0.952160000000     0.452879   
Zn28     Zn     0.535800000000     0.543170000000     0.033580000000     0.453396   
Zn29     Zn     0.455660000000     0.539760000000     0.449580000000     0.459862   
Zn30     Zn     0.449890000000     0.451190000000     0.533960000000     0.45467    
Zn31     Zn     0.538790000000     0.451780000000     0.448040000000     0.459157   
Zn32     Zn     0.541620000000     0.533700000000     0.539070000000     0.454178   


