data_structure

_audit_creation_method RASPA-1.0
_audit_creation_date 2023-5-19
_audit_author_name 'Poobodin Mano'

_cell_length_a    25.8447
_cell_length_b    25.9132
_cell_length_c    25.842
_cell_angle_alpha 90
_cell_angle_beta  90
_cell_angle_gamma 90
_cell_volume      17306.9

_symmetry_cell_setting          triclinic
_symmetry_space_group_name_Hall 'P 1'
_symmetry_space_group_name_H-M  'P 1'
_symmetry_Int_Tables_number     1

_symmetry_equiv_pos_as_xyz 'x,y,z'

loop_
_atom_site_label
_atom_site_type_symbol
_atom_site_fract_x
_atom_site_fract_y
_atom_site_fract_z
_atom_site_charge
Br1      Br     0.378230000000     0.522500000000     0.689820000000    -0.186041   
Br2      Br     0.607240000000     0.471800000000     0.190310000000    -0.194368   
Br3      Br     0.601750000000     0.694240000000     0.570270000000    -0.183662   
Br4      Br     0.426600000000     0.306540000000     0.591880000000    -0.178324   
Br5      Br     0.589050000000     0.692320000000     0.080270000000    -0.187575   
Br6      Br     0.420090000000     0.304240000000     0.082730000000    -0.170736   
Br7      Br     0.521930000000     0.111510000000     0.692460000000    -0.195592   
Br8      Br     0.473220000000     0.111290000000     0.310030000000    -0.192784   
Br9      Br     0.691300000000     0.478460000000     0.619520000000    -0.192001   
Br10     Br     0.307520000000     0.614570000000     0.517690000000    -0.196074   
Br11     Br     0.807820000000     0.482260000000     0.877470000000    -0.188189   
Br12     Br     0.309170000000     0.381910000000     0.980840000000    -0.180234   
Br13     Br     0.041600000000     0.390140000000     0.684680000000    -0.195097   
Br14     Br     0.888260000000     0.484250000000     0.306390000000    -0.189309   
Br15     Br     0.877640000000     0.690340000000     0.498510000000    -0.186829   
Br16     Br     0.983740000000     0.307370000000     0.381940000000    -0.19397    
Br17     Br     0.694260000000     0.083580000000     0.410630000000    -0.186189   
Br18     Br     0.194600000000     0.084020000000     0.587640000000    -0.187385   
Br19     Br     0.976350000000     0.683930000000     0.112970000000    -0.193625   
Br20     Br     0.963690000000     0.305490000000     0.890430000000    -0.192471   
Br21     Br     0.805040000000     0.918360000000     0.092170000000    -0.184619   
Br22     Br     0.303630000000     0.090250000000     0.070660000000    -0.186758   
Br23     Br     0.017950000000     0.879840000000     0.688340000000    -0.201813   
Br24     Br     0.990570000000     0.879660000000     0.310160000000    -0.193752   
C1       C      0.997060000000     0.991690000000     0.855170000000     0.371595   
C2       C      0.141580000000     0.998410000000     0.996600000000     0.364661   
C3       C      0.993610000000     0.139370000000     0.000370000000     0.370518   
C4       C      0.005130000000     0.993040000000     0.143940000000     0.372983   
C5       C      0.000460000000     0.849830000000     0.001070000000     0.370884   
C6       C      0.857910000000     0.992880000000     0.003760000000     0.375555   
C7       C      0.005350000000     0.991960000000     0.356720000000     0.386165   
C8       C      0.142150000000     0.002170000000     0.505850000000     0.377015   
C9       C      0.999710000000     0.142780000000     0.497160000000     0.371785   
C10      C      0.996470000000     0.991390000000     0.641880000000     0.383161   
C11      C      0.995530000000     0.854130000000     0.495560000000     0.376976   
C12      C      0.857820000000     0.004870000000     0.496640000000     0.369996   
C13      C      0.989390000000     0.352150000000     0.000590000000     0.383033   
C14      C      0.001850000000     0.497060000000     0.140810000000     0.373471   
C15      C      0.141050000000     0.492230000000     0.995220000000     0.367631   
C16      C      0.996450000000     0.637310000000     0.001300000000     0.384597   
C17      C      0.857030000000     0.497380000000     0.989500000000     0.383538   
C18      C      0.010290000000     0.496550000000     0.852910000000     0.374029   
C19      C      0.998750000000     0.355720000000     0.494260000000     0.385007   
C20      C      0.000900000000     0.499160000000     0.354400000000     0.384593   
C21      C      0.857940000000     0.490260000000     0.505630000000     0.372291   
C22      C      0.991090000000     0.641140000000     0.492190000000     0.383323   
C23      C      0.143340000000     0.500000000000     0.496690000000     0.371831   
C24      C      0.013410000000     0.500810000000     0.640090000000     0.38516    
C25      C      0.356830000000     0.000640000000     0.998130000000     0.376996   
C26      C      0.502080000000     0.997790000000     0.857550000000     0.370391   
C27      C      0.503200000000     0.142150000000     0.001020000000     0.373047   
C28      C      0.642940000000     0.996720000000     0.003740000000     0.368386   
C29      C      0.500590000000     0.854120000000     0.001900000000     0.370622   
C30      C      0.496010000000     0.998440000000     0.144680000000     0.371172   
C31      C      0.357350000000     0.999730000000     0.505280000000     0.367875   
C32      C      0.493850000000     0.000400000000     0.357750000000     0.385666   
C33      C      0.500090000000     0.144230000000     0.501370000000     0.377278   
C34      C      0.642940000000     0.005180000000     0.496610000000     0.379369   
C35      C      0.505490000000     0.856140000000     0.500740000000     0.370615   
C36      C      0.504100000000     0.000430000000     0.644470000000     0.385353   
C37      C      0.496690000000     0.496570000000     0.143140000000     0.382239   
C38      C      0.354550000000     0.495530000000     0.997810000000     0.383591   
C39      C      0.503330000000     0.639800000000     0.002500000000     0.376137   
C40      C      0.490980000000     0.499360000000     0.856330000000     0.373137   
C41      C      0.502700000000     0.356420000000     0.001310000000     0.381157   
C42      C      0.643560000000     0.498150000000     0.994280000000     0.372166   
C43      C      0.356630000000     0.503230000000     0.498070000000     0.387078   
C44      C      0.500980000000     0.358320000000     0.502620000000     0.380729   
C45      C      0.497310000000     0.499570000000     0.356740000000     0.368981   
C46      C      0.644570000000     0.492130000000     0.505850000000     0.385437   
C47      C      0.490340000000     0.502300000000     0.643210000000     0.386468   
C48      C      0.509920000000     0.641780000000     0.500140000000     0.378595   
C49      C      0.534140000000     0.491700000000     0.776080000000     0.0376312  
C50      C      0.444570000000     0.509570000000     0.777390000000     0.00411513 
C51      C      0.534030000000     0.494920000000     0.722360000000     0.0460154  
C52      C      0.443430000000     0.508410000000     0.723100000000     0.162074   
C53      C      0.452290000000     0.507380000000     0.276650000000     0.034194   
C54      C      0.541510000000     0.488130000000     0.277220000000     0.00192859 
C55      C      0.452010000000     0.503810000000     0.222590000000     0.0449791  
C56      C      0.542300000000     0.488600000000     0.223120000000     0.162062   
C57      C      0.474680000000     0.775150000000     0.470310000000     0.0345274  
C58      C      0.544060000000     0.777470000000     0.529190000000     0.00201766 
C59      C      0.476740000000     0.721440000000     0.470070000000     0.0410673  
C60      C      0.546440000000     0.723360000000     0.529280000000     0.157053   
C61      C      0.531060000000     0.224560000000     0.469120000000     0.0382389  
C62      C      0.470560000000     0.223370000000     0.537170000000     0.00546069 
C63      C      0.531090000000     0.278340000000     0.470090000000     0.042562   
C64      C      0.470510000000     0.277310000000     0.538740000000     0.158069   
C65      C      0.469580000000     0.773270000000     0.971220000000     0.0330308  
C66      C      0.535860000000     0.775340000000     0.033590000000     0.000590282
C67      C      0.470960000000     0.719530000000     0.971670000000     0.037981   
C68      C      0.537630000000     0.721300000000     0.034330000000     0.155349   
C69      C      0.536350000000     0.222590000000     0.970790000000     0.0359648  
C70      C      0.470950000000     0.221340000000     0.034110000000     0.00349158 
C71      C      0.535780000000     0.276470000000     0.971320000000     0.041937   
C72      C      0.470200000000     0.275270000000     0.035200000000     0.1599     
C73      C      0.496260000000     0.954040000000     0.777020000000     0.0335551  
C74      C      0.510780000000     0.043980000000     0.778890000000     0.00137292 
C75      C      0.499610000000     0.954740000000     0.723090000000     0.0427216  
C76      C      0.509720000000     0.045540000000     0.724820000000     0.159778   
C77      C      0.501030000000     0.954420000000     0.225090000000     0.0346415  
C78      C      0.485530000000     0.044190000000     0.223430000000     0.00290583 
C79      C      0.497690000000     0.954920000000     0.279000000000     0.0440482  
C80      C      0.486460000000     0.045590000000     0.277520000000     0.16177    
C81      C      0.777830000000     0.491720000000     0.461370000000     0.0377058  
C82      C      0.778740000000     0.483340000000     0.552280000000     0.00513078 
C83      C      0.724010000000     0.490300000000     0.461640000000     0.047249   
C84      C      0.724480000000     0.485930000000     0.553110000000     0.163132   
C85      C      0.224080000000     0.456980000000     0.489160000000     0.0355229  
C86      C      0.221900000000     0.546680000000     0.504810000000     0.00189863 
C87      C      0.277940000000     0.458020000000     0.491420000000     0.0455522  
C88      C      0.275980000000     0.548570000000     0.503520000000     0.161564   
C89      C      0.724660000000     0.505870000000     0.036390000000     0.036454   
C90      C      0.721870000000     0.491870000000     0.946210000000     0.00335002 
C91      C      0.778520000000     0.503540000000     0.034990000000     0.0460309  
C92      C      0.776090000000     0.493680000000     0.943990000000     0.160423   
C93      C      0.220440000000     0.537880000000     0.000000000000     0.0318195  
C94      C      0.221170000000     0.447530000000     0.988790000000     0.00210166 
C95      C      0.274320000000     0.538500000000     0.998770000000     0.0431529  
C96      C      0.275340000000     0.447480000000     0.991150000000     0.159086   
C97      C      0.008040000000     0.543370000000     0.773890000000     0.0366635  
C98      C      0.025940000000     0.454060000000     0.773100000000     0.0040038  
C99      C      0.011640000000     0.544600000000     0.719980000000     0.0449508  
C100     C      0.025630000000     0.454330000000     0.718980000000     0.163236   
C101     C      0.046600000000     0.503800000000     0.221040000000     0.0363981  
C102     C      0.955980000000     0.492880000000     0.220130000000     0.00453564 
C103     C      0.046100000000     0.502280000000     0.275090000000     0.0450846  
C104     C      0.954800000000     0.494940000000     0.274180000000     0.163429   
C105     C      0.037920000000     0.773370000000     0.488150000000     0.0385017  
C106     C      0.946990000000     0.775930000000     0.495440000000     0.00675989 
C107     C      0.036370000000     0.719690000000     0.488770000000     0.0438805  
C108     C      0.944920000000     0.721860000000     0.492380000000     0.160842   
C109     C      0.004960000000     0.223310000000     0.540640000000     0.037195   
C110     C      0.993240000000     0.221310000000     0.450110000000     0.00271042 
C111     C      0.002100000000     0.277070000000     0.539710000000     0.0434085  
C112     C      0.994390000000     0.275350000000     0.448460000000     0.159934   
C113     C      0.777140000000     0.977230000000     0.530910000000     0.0344185  
C114     C      0.778410000000     0.037120000000     0.462490000000     0.00275779 
C115     C      0.723330000000     0.977490000000     0.530290000000     0.0403124  
C116     C      0.724130000000     0.037750000000     0.461570000000     0.1572     
C117     C      0.276190000000     0.969120000000     0.474430000000     0.0341014  
C118     C      0.278180000000     0.033390000000     0.538650000000     0.00188229 
C119     C      0.222290000000     0.970390000000     0.474920000000     0.0390107  
C120     C      0.223890000000     0.035030000000     0.539440000000     0.156924   
C121     C      0.007330000000     0.769910000000     0.956910000000     0.0335661  
C122     C      0.990070000000     0.771010000000     0.046630000000     0.00242602 
C123     C      0.003270000000     0.716220000000     0.956930000000     0.043368   
C124     C      0.990490000000     0.716980000000     0.047650000000     0.160153   
C125     C      0.998020000000     0.219320000000     0.045570000000     0.0348774  
C126     C      0.979510000000     0.218410000000     0.956160000000     0.00205348 
C127     C      0.993650000000     0.273170000000     0.045870000000     0.0435609  
C128     C      0.979440000000     0.272420000000     0.955420000000     0.160257   
C129     C      0.724100000000     0.024760000000     0.970500000000     0.0340524  
C130     C      0.721940000000     0.965130000000     0.039100000000     0.00183242 
C131     C      0.777990000000     0.023360000000     0.970990000000     0.0392621  
C132     C      0.776130000000     0.963380000000     0.039940000000     0.156112   
C133     C      0.222870000000     0.966830000000     0.966300000000     0.0329012  
C134     C      0.220710000000     0.034930000000     0.026400000000     0.00102852 
C135     C      0.276910000000     0.967940000000     0.967030000000     0.038764   
C136     C      0.274900000000     0.036510000000     0.027340000000     0.155877   
C137     C      0.986050000000     0.034930000000     0.775140000000     0.0342436  
C138     C      0.005430000000     0.945910000000     0.775890000000     0.00113744 
C139     C      0.988130000000     0.034830000000     0.721250000000     0.0444916  
C140     C      0.003200000000     0.944730000000     0.721680000000     0.159639   
C141     C      0.015210000000     0.036420000000     0.223920000000     0.0350247  
C142     C      0.000120000000     0.946540000000     0.222870000000     0.00283735 
C143     C      0.012900000000     0.036050000000     0.277760000000     0.0443182  
C144     C      0.002220000000     0.945280000000     0.276990000000     0.160251   
H1       H      0.570410000000     0.489320000000     0.702100000000     0.0600988  
H2       H      0.570760000000     0.484760000000     0.795410000000     0.0553416  
H3       H      0.408800000000     0.516350000000     0.798280000000     0.0748683  
H4       H      0.415760000000     0.509930000000     0.202300000000     0.0470055  
H5       H      0.416080000000     0.515130000000     0.296390000000     0.0505009  
H6       H      0.577480000000     0.480860000000     0.297620000000     0.0759189  
H7       H      0.448700000000     0.701660000000     0.445960000000     0.0555137  
H8       H      0.445690000000     0.793660000000     0.446300000000     0.052231   
H9       H      0.571720000000     0.798470000000     0.552720000000     0.0760448  
H10      H      0.555820000000     0.297850000000     0.442410000000     0.0558916  
H11      H      0.555650000000     0.205470000000     0.441010000000     0.0627332  
H12      H      0.446300000000     0.202840000000     0.564560000000     0.0828614  
H13      H      0.444090000000     0.699800000000     0.946220000000     0.0508021  
H14      H      0.442090000000     0.791930000000     0.945620000000     0.0500092  
H15      H      0.562340000000     0.796220000000     0.058540000000     0.0768467  
H16      H      0.562420000000     0.296110000000     0.945570000000     0.0535484  
H17      H      0.563100000000     0.203480000000     0.944740000000     0.053375   
H18      H      0.444610000000     0.200840000000     0.059530000000     0.0835741  
H19      H      0.495410000000     0.918590000000     0.702310000000     0.0461249  
H20      H      0.490580000000     0.917270000000     0.796250000000     0.0494002  
H21      H      0.516180000000     0.079840000000     0.799910000000     0.0744172  
H22      H      0.502450000000     0.918750000000     0.299640000000     0.0465618  
H23      H      0.507220000000     0.917760000000     0.205790000000     0.05122    
H24      H      0.479760000000     0.080050000000     0.202520000000     0.0778047  
H25      H      0.704010000000     0.492910000000     0.424790000000     0.0527461  
H26      H      0.797310000000     0.494460000000     0.424280000000     0.0643213  
H27      H      0.799400000000     0.479870000000     0.588660000000     0.0778232  
H28      H      0.298650000000     0.421950000000     0.486270000000     0.0525878  
H29      H      0.205110000000     0.420110000000     0.483200000000     0.0549914  
H30      H      0.200820000000     0.582360000000     0.510990000000     0.0741053  
H31      H      0.799430000000     0.507840000000     0.071170000000     0.0529492  
H32      H      0.705970000000     0.511000000000     0.073630000000     0.0630817  
H33      H      0.700440000000     0.486330000000     0.910540000000     0.0746447  
H34      H      0.293720000000     0.575450000000     0.002620000000     0.0455139  
H35      H      0.200330000000     0.574420000000     0.003840000000     0.0503427  
H36      H      0.201240000000     0.410990000000     0.984020000000     0.0767046  
H37      H      0.005660000000     0.581160000000     0.700390000000     0.0497527  
H38      H      0.000500000000     0.579240000000     0.794160000000     0.0519181  
H39      H      0.032470000000     0.417730000000     0.792940000000     0.0831466  
H40      H      0.082670000000     0.505730000000     0.295430000000     0.0474697  
H41      H      0.083560000000     0.507540000000     0.201510000000     0.0515927  
H42      H      0.919650000000     0.488260000000     0.199600000000     0.0776421  
H43      H      0.072850000000     0.699040000000     0.486520000000     0.0491929  
H44      H      0.075470000000     0.791980000000     0.486230000000     0.0538732  
H45      H      0.910980000000     0.797180000000     0.498850000000     0.0772557  
H46      H      0.005530000000     0.297660000000     0.576120000000     0.0592775  
H47      H      0.009420000000     0.204310000000     0.577780000000     0.0553619  
H48      H      0.988760000000     0.200320000000     0.414060000000     0.0738499  
H49      H      0.703980000000     0.952920000000     0.558210000000     0.0534681  
H50      H      0.796110000000     0.952610000000     0.559050000000     0.0549012  
H51      H      0.799060000000     0.061250000000     0.435110000000     0.0777395  
H52      H      0.202620000000     0.944320000000     0.448630000000     0.0526261  
H53      H      0.294890000000     0.942470000000     0.448030000000     0.0522745  
H54      H      0.299080000000     0.059010000000     0.564440000000     0.0787995  
H55      H      0.008390000000     0.695910000000     0.920560000000     0.0458798  
H56      H      0.014330000000     0.789370000000     0.920410000000     0.0502962  
H57      H      0.983800000000     0.791700000000     0.082590000000     0.0770982  
H58      H      0.999440000000     0.293500000000     0.082120000000     0.0474807  
H59      H      0.005850000000     0.199760000000     0.081840000000     0.0505098  
H60      H      0.972900000000     0.197930000000     0.920140000000     0.0737988  
H61      H      0.797820000000     0.047370000000     0.942910000000     0.0517918  
H62      H      0.705430000000     0.049590000000     0.942340000000     0.0522822  
H63      H      0.700970000000     0.941560000000     0.066740000000     0.0778665  
H64      H      0.296880000000     0.940230000000     0.942740000000     0.0500847  
H65      H      0.204160000000     0.938640000000     0.941570000000     0.0516493  
H66      H      0.199800000000     0.062360000000     0.050240000000     0.0771788  
H67      H      0.981680000000     0.071000000000     0.701060000000     0.0484147  
H68      H      0.978900000000     0.071270000000     0.794710000000     0.0521388  
H69      H      0.013230000000     0.910290000000     0.796520000000     0.0719356  
H70      H      0.017410000000     0.072400000000     0.298160000000     0.0471608  
H71      H      0.020560000000     0.073120000000     0.204430000000     0.0509413  
H72      H      0.994040000000     0.910650000000     0.202100000000     0.0768664  
N1       N      0.489680000000     0.500070000000     0.803470000000    -0.157569   
N2       N      0.488720000000     0.501940000000     0.695960000000    -0.179293   
N3       N      0.496900000000     0.498610000000     0.303760000000    -0.156696   
N4       N      0.497150000000     0.496070000000     0.195990000000    -0.180083   
N5       N      0.508010000000     0.803200000000     0.500160000000    -0.157867   
N6       N      0.511830000000     0.695000000000     0.500000000000    -0.176633   
N7       N      0.500530000000     0.197130000000     0.502420000000    -0.156155   
N8       N      0.500690000000     0.305180000000     0.504380000000    -0.177843   
N9       N      0.501900000000     0.801180000000     0.002250000000    -0.158684   
N10      N      0.504580000000     0.693020000000     0.003210000000    -0.178136   
N11      N      0.503650000000     0.195090000000     0.001910000000    -0.157314   
N12      N      0.502750000000     0.303250000000     0.003150000000    -0.177196   
N13      N      0.502840000000     0.998540000000     0.804680000000    -0.158032   
N14      N      0.504730000000     0.000500000000     0.697210000000    -0.182026   
N15      N      0.494250000000     0.998970000000     0.197530000000    -0.157227   
N16      N      0.492230000000     0.000560000000     0.305020000000    -0.181507   
N17      N      0.805070000000     0.488020000000     0.506620000000    -0.154942   
N18      N      0.697370000000     0.489340000000     0.507350000000    -0.180207   
N19      N      0.196230000000     0.501150000000     0.496840000000    -0.157363   
N20      N      0.303810000000     0.503750000000     0.497420000000    -0.180726   
N21      N      0.696470000000     0.498780000000     0.992220000000    -0.156015   
N22      N      0.804170000000     0.498490000000     0.988910000000    -0.179824   
N23      N      0.194000000000     0.492470000000     0.994510000000    -0.156859   
N24      N      0.301730000000     0.493410000000     0.995940000000    -0.181093   
N25      N      0.015040000000     0.498050000000     0.800210000000    -0.156111   
N26      N      0.017900000000     0.499850000000     0.692690000000    -0.181065   
N27      N      0.001620000000     0.498050000000     0.193770000000    -0.156629   
N28      N      0.000290000000     0.499110000000     0.301530000000    -0.180117   
N29      N      0.993390000000     0.801390000000     0.492950000000    -0.155872   
N30      N      0.990120000000     0.693900000000     0.490380000000    -0.179612   
N31      N      0.999540000000     0.195580000000     0.495970000000    -0.157259   
N32      N      0.998200000000     0.303000000000     0.493700000000    -0.179654   
N33      N      0.804740000000     0.006690000000     0.496780000000    -0.15693    
N34      N      0.696260000000     0.007240000000     0.495630000000    -0.177571   
N35      N      0.304200000000     0.000620000000     0.506210000000    -0.156579   
N36      N      0.195560000000     0.003120000000     0.507190000000    -0.177179   
N37      N      0.999620000000     0.797110000000     0.001560000000    -0.157464   
N38      N      0.996320000000     0.689920000000     0.002330000000    -0.181886   
N39      N      0.990500000000     0.192140000000     0.000760000000    -0.157559   
N40      N      0.986500000000     0.299540000000     0.000590000000    -0.180829   
N41      N      0.696050000000     0.995600000000     0.004470000000    -0.157623   
N42      N      0.804540000000     0.992770000000     0.005380000000    -0.177726   
N43      N      0.194750000000     0.000050000000     0.996300000000    -0.156067   
N44      N      0.303420000000     0.002180000000     0.997790000000    -0.177474   
N45      N      0.996020000000     0.990770000000     0.802270000000    -0.157925   
N46      N      0.995620000000     0.989770000000     0.694660000000    -0.180912   
N47      N      0.007200000000     0.991930000000     0.196710000000    -0.157952   
N48      N      0.007280000000     0.990590000000     0.304080000000    -0.182301   
O1       O      0.999920000000     0.994450000000     0.999620000000    -0.367052   
O2       O      0.970160000000     0.024990000000     0.879560000000    -0.293546   
O3       O      0.117740000000     0.965700000000     0.968100000000    -0.290259   
O4       O      0.021710000000     0.116180000000     0.033560000000    -0.291882   
O5       O      0.025170000000     0.959490000000     0.879630000000    -0.292836   
O6       O      0.968510000000     0.113740000000     0.966580000000    -0.292023   
O7       O      0.116360000000     0.029340000000     0.025890000000    -0.28969    
O8       O      0.977610000000     0.960050000000     0.120060000000    -0.288363   
O9       O      0.027970000000     0.873700000000     0.967860000000    -0.293326   
O10      O      0.030110000000     0.027440000000     0.119120000000    -0.294001   
O11      O      0.973290000000     0.874700000000     0.033670000000    -0.288191   
O12      O      0.883920000000     0.964160000000     0.034170000000    -0.273171   
O13      O      0.881380000000     0.022030000000     0.971390000000    -0.293696   
O14      O      0.999730000000     0.998460000000     0.499110000000    -0.37133    
O15      O      0.978500000000     0.026890000000     0.378600000000    -0.294519   
O16      O      0.119270000000     0.971150000000     0.474970000000    -0.295016   
O17      O      0.022510000000     0.119080000000     0.533890000000    -0.288315   
O18      O      0.031520000000     0.959680000000     0.383220000000    -0.27918    
O19      O      0.976790000000     0.117650000000     0.461560000000    -0.292945   
O20      O      0.115440000000     0.031500000000     0.535170000000    -0.270353   
O21      O      0.972350000000     0.957280000000     0.615640000000    -0.276666   
O22      O      0.034870000000     0.877900000000     0.477730000000    -0.287977   
O23      O      0.019910000000     0.028510000000     0.619580000000    -0.290741   
O24      O      0.958440000000     0.879200000000     0.516080000000    -0.286164   
O25      O      0.881060000000     0.975320000000     0.528580000000    -0.294004   
O26      O      0.883570000000     0.031730000000     0.464050000000    -0.287999   
O27      O      0.998990000000     0.494830000000     0.996540000000    -0.370792   
O28      O      0.017140000000     0.374380000000     0.966540000000    -0.278654   
O29      O      0.964450000000     0.475780000000     0.116840000000    -0.291915   
O30      O      0.117080000000     0.529360000000     0.017080000000    -0.295259   
O31      O      0.965900000000     0.378290000000     0.035360000000    -0.287572   
O32      O      0.116210000000     0.454860000000     0.974510000000    -0.288248   
O33      O      0.038940000000     0.517800000000     0.115760000000    -0.288195   
O34      O      0.972370000000     0.613880000000     0.965230000000    -0.292565   
O35      O      0.879860000000     0.473200000000     0.025950000000    -0.291009   
O36      O      0.023190000000     0.612440000000     0.034410000000    -0.280195   
O37      O      0.882810000000     0.522230000000     0.955400000000    -0.271075   
O38      O      0.982630000000     0.530220000000     0.875720000000    -0.288567   
O39      O      0.032640000000     0.460980000000     0.878690000000    -0.283912   
O40      O      0.000540000000     0.498420000000     0.497530000000    -0.372474   
O41      O      0.975570000000     0.379630000000     0.530620000000    -0.28636    
O42      O      0.036960000000     0.475490000000     0.378340000000    -0.288825   
O43      O      0.879960000000     0.513950000000     0.468500000000    -0.282474   
O44      O      0.024580000000     0.380310000000     0.460200000000    -0.274926   
O45      O      0.884670000000     0.469200000000     0.541540000000    -0.283297   
O46      O      0.965320000000     0.522510000000     0.379230000000    -0.274792   
O47      O      0.027460000000     0.619160000000     0.517030000000    -0.297788   
O48      O      0.119590000000     0.463620000000     0.473360000000    -0.291024   
O49      O      0.957170000000     0.614450000000     0.468190000000    -0.271331   
O50      O      0.118270000000     0.535750000000     0.519490000000    -0.292502   
O51      O      0.033320000000     0.537760000000     0.614130000000    -0.289088   
O52      O      0.987310000000     0.465640000000     0.617810000000    -0.279568   
O53      O      0.500130000000     0.997950000000     0.000850000000    -0.369577   
O54      O      0.382310000000     0.029360000000     0.028890000000    -0.274992   
O55      O      0.475550000000     0.963620000000     0.881250000000    -0.292564   
O56      O      0.534580000000     0.117640000000     0.972020000000    -0.293475   
O57      O      0.380970000000     0.969800000000     0.967890000000    -0.293405   
O58      O      0.471160000000     0.117590000000     0.029240000000    -0.288818   
O59      O      0.527860000000     0.031510000000     0.882580000000    -0.292821   
O60      O      0.617400000000     0.969230000000     0.035850000000    -0.291271   
O61      O      0.469020000000     0.877910000000     0.972360000000    -0.294986   
O62      O      0.619400000000     0.025020000000     0.970820000000    -0.293079   
O63      O      0.531130000000     0.879370000000     0.031130000000    -0.294844   
O64      O      0.522630000000     0.964140000000     0.121400000000    -0.292601   
O65      O      0.471290000000     0.032550000000     0.119170000000    -0.288499   
O66      O      0.500150000000     0.000120000000     0.501010000000    -0.369638   
O67      O      0.382830000000     0.029710000000     0.535090000000    -0.289479   
O68      O      0.470110000000     0.965200000000     0.382790000000    -0.29407    
O69      O      0.529470000000     0.120060000000     0.470150000000    -0.284015   
O70      O      0.381010000000     0.969330000000     0.474270000000    -0.29107    
O71      O      0.470410000000     0.119390000000     0.531810000000    -0.28698    
O72      O      0.520540000000     0.034430000000     0.381190000000    -0.275616   
O73      O      0.620090000000     0.976520000000     0.529800000000    -0.293535   
O74      O      0.471400000000     0.879460000000     0.473740000000    -0.29463    
O75      O      0.616300000000     0.031490000000     0.464720000000    -0.273796   
O76      O      0.537260000000     0.881870000000     0.528270000000    -0.29335    
O77      O      0.529870000000     0.966410000000     0.619850000000    -0.293911   
O78      O      0.476810000000     0.033660000000     0.620560000000    -0.279599   
O79      O      0.498950000000     0.498110000000     0.999290000000    -0.371443   
O80      O      0.532500000000     0.520160000000     0.118930000000    -0.275418   
O81      O      0.379740000000     0.460320000000     0.021070000000    -0.27464    
O82      O      0.472210000000     0.616710000000     0.971850000000    -0.296578   
O83      O      0.460470000000     0.473700000000     0.118590000000    -0.28554    
O84      O      0.532330000000     0.613540000000     0.032510000000    -0.272869   
O85      O      0.378120000000     0.533610000000     0.977400000000    -0.296026   
O86      O      0.525120000000     0.472150000000     0.879160000000    -0.292688   
O87      O      0.474110000000     0.381920000000     0.032050000000    -0.271519   
O88      O      0.459170000000     0.526820000000     0.882190000000    -0.288881   
O89      O      0.530650000000     0.380240000000     0.968080000000    -0.289019   
O90      O      0.618000000000     0.473360000000     0.960230000000    -0.290539   
O91      O      0.620190000000     0.522090000000     0.030490000000    -0.281515   
O92      O      0.500640000000     0.500150000000     0.500260000000    -0.372807   
O93      O      0.382020000000     0.539730000000     0.477030000000    -0.278438   
O94      O      0.471990000000     0.384070000000     0.532750000000    -0.276374   
O95      O      0.531480000000     0.473610000000     0.381050000000    -0.291809   
O96      O      0.380060000000     0.465350000000     0.518840000000    -0.287374   
O97      O      0.464100000000     0.526640000000     0.381340000000    -0.290311   
O98      O      0.529690000000     0.381890000000     0.469920000000    -0.291566   
O99      O      0.620420000000     0.518710000000     0.539500000000    -0.272222   
O100     O      0.456860000000     0.477050000000     0.617320000000    -0.269233   
O101     O      0.620120000000     0.469860000000     0.469300000000    -0.29332    
O102     O      0.527670000000     0.525170000000     0.620650000000    -0.285055   
O103     O      0.537190000000     0.615640000000     0.531890000000    -0.268847   
O104     O      0.478910000000     0.618650000000     0.469380000000    -0.290313   
Zn1      Zn     0.956420000000     0.037540000000     0.955360000000     0.458619   
Zn2      Zn     0.041840000000     0.949540000000     0.955240000000     0.456127   
Zn3      Zn     0.040840000000     0.040880000000     0.043070000000     0.457414   
Zn4      Zn     0.959740000000     0.949910000000     0.045350000000     0.468383   
Zn5      Zn     0.960580000000     0.042330000000     0.452170000000     0.464243   
Zn6      Zn     0.045220000000     0.953070000000     0.460130000000     0.465248   
Zn7      Zn     0.038250000000     0.043410000000     0.545620000000     0.465388   
Zn8      Zn     0.954550000000     0.953680000000     0.539030000000     0.464983   
Zn9      Zn     0.040150000000     0.447310000000     0.955450000000     0.465134   
Zn10     Zn     0.953830000000     0.456240000000     0.042500000000     0.463911   
Zn11     Zn     0.043260000000     0.537290000000     0.039800000000     0.46206    
Zn12     Zn     0.959840000000     0.538780000000     0.949430000000     0.466837   
Zn13     Zn     0.962560000000     0.454810000000     0.545580000000     0.468403   
Zn14     Zn     0.044330000000     0.455620000000     0.453670000000     0.465091   
Zn15     Zn     0.952250000000     0.536710000000     0.454670000000     0.471317   
Zn16     Zn     0.043230000000     0.546490000000     0.536220000000     0.464818   
Zn17     Zn     0.457500000000     0.042860000000     0.043270000000     0.469346   
Zn18     Zn     0.457300000000     0.953500000000     0.956870000000     0.455714   
Zn19     Zn     0.544230000000     0.041750000000     0.957900000000     0.460908   
Zn20     Zn     0.541580000000     0.954330000000     0.046230000000     0.461731   
Zn21     Zn     0.458640000000     0.044220000000     0.545750000000     0.468505   
Zn22     Zn     0.456680000000     0.954620000000     0.459270000000     0.458026   
Zn23     Zn     0.540310000000     0.044880000000     0.455500000000     0.473929   
Zn24     Zn     0.545530000000     0.957520000000     0.543660000000     0.460881   
Zn25     Zn     0.544790000000     0.537260000000     0.044140000000     0.469777   
Zn26     Zn     0.454500000000     0.455510000000     0.042070000000     0.472462   
Zn27     Zn     0.453430000000     0.542660000000     0.958970000000     0.460825   
Zn28     Zn     0.541980000000     0.456710000000     0.953160000000     0.463145   
Zn29     Zn     0.457620000000     0.544980000000     0.457880000000     0.462881   
Zn30     Zn     0.453890000000     0.458220000000     0.541210000000     0.475864   
Zn31     Zn     0.544220000000     0.457700000000     0.456070000000     0.462609   
Zn32     Zn     0.545410000000     0.539050000000     0.546550000000     0.473334   


