data_structure

_audit_creation_method RASPA-1.0
_audit_creation_date 2023-5-19
_audit_author_name 'Poobodin Mano'

_cell_length_a    25.9674
_cell_length_b    25.7989
_cell_length_c    25.8043
_cell_angle_alpha 90
_cell_angle_beta  90
_cell_angle_gamma 90
_cell_volume      17287.1

_symmetry_cell_setting          triclinic
_symmetry_space_group_name_Hall 'P 1'
_symmetry_space_group_name_H-M  'P 1'
_symmetry_Int_Tables_number     1

_symmetry_equiv_pos_as_xyz 'x,y,z'

loop_
_atom_site_label
_atom_site_type_symbol
_atom_site_fract_x
_atom_site_fract_y
_atom_site_fract_z
_atom_site_charge
C1       C      0.992260000000     0.004160000000     0.139520000000     0.366767   
C2       C      0.138340000000     0.001660000000     0.992420000000     0.369256   
C3       C      0.992890000000     0.859450000000     0.001080000000     0.371788   
C4       C      0.989960000000     0.992340000000     0.852030000000     0.371875   
C5       C      0.998790000000     0.144790000000     0.991490000000     0.364815   
C6       C      0.852110000000     0.003210000000     0.990350000000     0.3746     
C7       C      0.993640000000     0.005410000000     0.353650000000     0.367413   
C8       C      0.142160000000     0.011850000000     0.497520000000     0.371713   
C9       C      0.002610000000     0.148070000000     0.505270000000     0.365104   
C10      C      0.990000000000     0.994070000000     0.638620000000     0.370751   
C11      C      0.007680000000     0.863520000000     0.495660000000     0.368684   
C12      C      0.855530000000     0.007680000000     0.490460000000     0.370012   
C13      C      0.996860000000     0.359120000000     0.992000000000     0.368155   
C14      C      0.994780000000     0.506210000000     0.143780000000     0.368982   
C15      C      0.134790000000     0.498250000000     0.002310000000     0.36845    
C16      C      0.989240000000     0.645750000000     0.000240000000     0.368948   
C17      C      0.850910000000     0.491710000000     0.007590000000     0.370256   
C18      C      0.989450000000     0.514200000000     0.857350000000     0.369172   
C19      C      0.002980000000     0.362560000000     0.506480000000     0.367609   
C20      C      0.992820000000     0.510010000000     0.357900000000     0.367911   
C21      C      0.855980000000     0.501250000000     0.497240000000     0.368711   
C22      C      0.006480000000     0.649500000000     0.502650000000     0.36776    
C23      C      0.141230000000     0.498160000000     0.498490000000     0.368225   
C24      C      0.991600000000     0.515150000000     0.643540000000     0.368734   
C25      C      0.492840000000     0.850960000000     0.996850000000     0.37024    
C26      C      0.639790000000     0.995520000000     0.991820000000     0.372605   
C27      C      0.500280000000     0.993250000000     0.852280000000     0.367735   
C28      C      0.491880000000     0.138170000000     0.994680000000     0.373636   
C29      C      0.500630000000     0.995720000000     0.136980000000     0.366914   
C30      C      0.352230000000     0.996030000000     0.993830000000     0.370302   
C31      C      0.354640000000     0.005400000000     0.497140000000     0.371282   
C32      C      0.493390000000     0.142210000000     0.499200000000     0.370337   
C33      C      0.503980000000     0.993390000000     0.637070000000     0.369389   
C34      C      0.642550000000     0.000470000000     0.490760000000     0.370068   
C35      C      0.500370000000     0.999040000000     0.352400000000     0.367085   
C36      C      0.491250000000     0.856270000000     0.495890000000     0.369533   
C37      C      0.491150000000     0.637350000000     0.001800000000     0.371711   
C38      C      0.348840000000     0.493490000000     0.000950000000     0.372179   
C39      C      0.498470000000     0.497440000000     0.858630000000     0.367719   
C40      C      0.489440000000     0.351220000000     0.997960000000     0.373968   
C41      C      0.494950000000     0.492740000000     0.143770000000     0.36865    
C42      C      0.637120000000     0.491230000000     0.005100000000     0.372345   
C43      C      0.354160000000     0.498660000000     0.500970000000     0.371887   
C44      C      0.491790000000     0.355750000000     0.503270000000     0.371879   
C45      C      0.502240000000     0.495070000000     0.358830000000     0.368042   
C46      C      0.642900000000     0.499300000000     0.499300000000     0.368548   
C47      C      0.504070000000     0.500280000000     0.643290000000     0.367637   
C48      C      0.491940000000     0.642340000000     0.498960000000     0.368341   
C49      C      0.470170000000     0.466450000000     0.776660000000     0.035288   
C50      C      0.534570000000     0.530550000000     0.780330000000     0.0292612  
C51      C      0.472290000000     0.467350000000     0.722760000000     0.0340204  
C52      C      0.537020000000     0.531720000000     0.725970000000     0.0527555  
C53      C      0.574090000000     0.566990000000     0.703270000000     0.0670257  
C54      C      0.468850000000     0.527390000000     0.225010000000     0.0341502  
C55      C      0.529310000000     0.459430000000     0.222570000000     0.0287049  
C56      C      0.471440000000     0.527750000000     0.278890000000     0.0320478  
C57      C      0.532330000000     0.459600000000     0.276820000000     0.0522576  
C58      C      0.567380000000     0.422600000000     0.300070000000     0.0667634  
C59      C      0.447830000000     0.722340000000     0.485130000000     0.0346512  
C60      C      0.534120000000     0.722450000000     0.513930000000     0.029771   
C61      C      0.447370000000     0.776590000000     0.486760000000     0.0373222  
C62      C      0.534860000000     0.776610000000     0.512540000000     0.0565451  
C63      C      0.580420000000     0.802630000000     0.531880000000     0.0649831  
C64      C      0.536230000000     0.222450000000     0.508810000000     0.0355258  
C65      C      0.446340000000     0.221160000000     0.495040000000     0.0310087  
C66      C      0.535690000000     0.276360000000     0.507610000000     0.0362333  
C67      C      0.444930000000     0.275470000000     0.498440000000     0.0550751  
C68      C      0.395680000000     0.301010000000     0.491980000000     0.062654   
C69      C      0.536160000000     0.770680000000     0.004980000000     0.0347836  
C70      C      0.446070000000     0.771980000000     0.992680000000     0.0296526  
C71      C      0.535570000000     0.716710000000     0.003960000000     0.0350331  
C72      C      0.444680000000     0.717740000000     0.996120000000     0.0539929  
C73      C      0.395260000000     0.692390000000     0.990220000000     0.0611673  
C74      C      0.535060000000     0.218620000000     0.989940000000     0.0353445  
C75      C      0.444700000000     0.216570000000     0.000600000000     0.0308106  
C76      C      0.534260000000     0.272420000000     0.993310000000     0.0355855  
C77      C      0.443170000000     0.270820000000     0.999230000000     0.0546784  
C78      C      0.393600000000     0.295940000000     0.004990000000     0.0631595  
C79      C      0.532800000000     0.025650000000     0.772170000000     0.0348356  
C80      C      0.474500000000     0.955790000000     0.772170000000     0.0295223  
C81      C      0.533850000000     0.024880000000     0.718090000000     0.033418   
C82      C      0.475430000000     0.954540000000     0.717930000000     0.0539475  
C83      C      0.445470000000     0.913870000000     0.693560000000     0.0701276  
C84      C      0.531900000000     0.964590000000     0.218230000000     0.03435    
C85      C      0.470950000000     0.032070000000     0.216090000000     0.0280558  
C86      C      0.531280000000     0.965790000000     0.272370000000     0.0320505  
C87      C      0.470250000000     0.033830000000     0.270280000000     0.0518425  
C88      C      0.436260000000     0.072010000000     0.293280000000     0.0659923  
C89      C      0.722470000000     0.544720000000     0.502970000000     0.036052   
C90      C      0.722290000000     0.453960000000     0.491940000000     0.0304873  
C91      C      0.776180000000     0.544960000000     0.499700000000     0.0365116  
C92      C      0.776360000000     0.453490000000     0.492890000000     0.0553773  
C93      C      0.801980000000     0.404070000000     0.486260000000     0.0633237  
C94      C      0.221510000000     0.490130000000     0.454580000000     0.035104   
C95      C      0.219690000000     0.502310000000     0.545150000000     0.0296924  
C96      C      0.275300000000     0.493160000000     0.455430000000     0.0356964  
C97      C      0.273560000000     0.501570000000     0.546780000000     0.0550162  
C98      C      0.297810000000     0.509320000000     0.596770000000     0.0638788  
C99      C      0.717560000000     0.523480000000     0.975950000000     0.0339696  
C100     C      0.715830000000     0.456340000000     0.037740000000     0.0284837  
C101     C      0.771010000000     0.523020000000     0.976960000000     0.0319136  
C102     C      0.769940000000     0.455600000000     0.039050000000     0.0520579  
C103     C      0.793820000000     0.418360000000     0.073460000000     0.0659707  
C104     C      0.215870000000     0.525060000000     0.036390000000     0.0348595  
C105     C      0.213040000000     0.463340000000     0.969290000000     0.0291481  
C106     C      0.269600000000     0.523530000000     0.035500000000     0.0342204  
C107     C      0.266980000000     0.461570000000     0.968020000000     0.0535865  
C108     C      0.289760000000     0.425600000000     0.931480000000     0.0706301  
C109     C      0.034550000000     0.515240000000     0.777600000000     0.0363529  
C110     C      0.944000000000     0.522820000000     0.777750000000     0.0308885  
C111     C      0.034750000000     0.517770000000     0.723670000000     0.0354897  
C112     C      0.943640000000     0.520890000000     0.723330000000     0.0549269  
C113     C      0.894450000000     0.524990000000     0.697210000000     0.0626331  
C114     C      0.985760000000     0.553880000000     0.276850000000     0.0345663  
C115     C      0.998710000000     0.463390000000     0.279250000000     0.0293482  
C116     C      0.989400000000     0.552780000000     0.222680000000     0.0345857  
C117     C      0.998450000000     0.461470000000     0.225130000000     0.0544212  
C118     C      0.007030000000     0.411420000000     0.201070000000     0.0634022  
C119     C      0.963380000000     0.729990000000     0.498050000000     0.0348594  
C120     C      0.054040000000     0.728650000000     0.503910000000     0.0295629  
C121     C      0.964050000000     0.783850000000     0.497740000000     0.0349269  
C122     C      0.055180000000     0.783030000000     0.499370000000     0.0539101  
C123     C      0.104790000000     0.808550000000     0.501250000000     0.0617094  
C124     C      0.010820000000     0.282360000000     0.462300000000     0.03593    
C125     C      0.998640000000     0.282750000000     0.552860000000     0.0309048  
C126     C      0.008560000000     0.228360000000     0.462140000000     0.0353618  
C127     C      0.000430000000     0.228260000000     0.553470000000     0.0544511  
C128     C      0.993550000000     0.202540000000     0.602870000000     0.0641769  
C129     C      0.774430000000     0.050410000000     0.493920000000     0.036934   
C130     C      0.778300000000     0.960140000000     0.480480000000     0.0323884  
C131     C      0.720670000000     0.047540000000     0.496380000000     0.0342565  
C132     C      0.724470000000     0.957720000000     0.478120000000     0.0536457  
C133     C      0.701900000000     0.907590000000     0.467130000000     0.0683073  
C134     C      0.221680000000     0.007210000000     0.452670000000     0.0364802  
C135     C      0.221200000000     0.018070000000     0.543460000000     0.0309391  
C136     C      0.275330000000     0.007210000000     0.452880000000     0.0352088  
C137     C      0.275070000000     0.014130000000     0.544390000000     0.0548199  
C138     C      0.300520000000     0.019480000000     0.594060000000     0.0647983  
C139     C      0.034420000000     0.724970000000     0.995740000000     0.0352684  
C140     C      0.943980000000     0.725600000000     0.005870000000     0.0292544  
C141     C      0.034750000000     0.778850000000     0.994220000000     0.0348276  
C142     C      0.944660000000     0.779910000000     0.009460000000     0.0559724  
C143     C      0.896390000000     0.806960000000     0.018390000000     0.0598652  
C144     C      0.006880000000     0.225130000000     0.035460000000     0.0358187  
C145     C      0.992580000000     0.224330000000     0.945200000000     0.0297179  
C146     C      0.004150000000     0.279110000000     0.035390000000     0.0351721  
C147     C      0.993810000000     0.278760000000     0.944260000000     0.0544466  
C148     C      0.985580000000     0.304180000000     0.894910000000     0.0638031  
C149     C      0.717630000000     0.039710000000     0.972940000000     0.0345244  
C150     C      0.720360000000     0.953050000000     0.002370000000     0.0290772  
C151     C      0.771210000000     0.041480000000     0.972410000000     0.0358689  
C152     C      0.774170000000     0.953630000000     0.998950000000     0.0572252  
C153     C      0.801200000000     0.904290000000     0.998180000000     0.0612144  
C154     C      0.272580000000     0.027440000000     0.027220000000     0.0339036  
C155     C      0.272620000000     0.969880000000     0.956430000000     0.0283185  
C156     C      0.218880000000     0.029090000000     0.026000000000     0.0321237  
C157     C      0.218700000000     0.971180000000     0.954930000000     0.0520051  
C158     C      0.194440000000     0.941850000000     0.913710000000     0.0656408  
C159     C      0.034030000000     0.989930000000     0.718630000000     0.0371806  
C160     C      0.943160000000     0.987380000000     0.717550000000     0.0315916  
C161     C      0.033670000000     0.987120000000     0.772490000000     0.0363775  
C162     C      0.942490000000     0.989180000000     0.771960000000     0.0553034  
C163     C      0.892960000000     0.987700000000     0.797720000000     0.0630296  
C164     C      0.037040000000     0.007300000000     0.219530000000     0.0342647  
C165     C      0.946350000000     0.001550000000     0.219270000000     0.0293575  
C166     C      0.037020000000     0.005030000000     0.273540000000     0.0346563  
C167     C      0.945870000000     0.003880000000     0.273670000000     0.054306   
C168     C      0.896520000000     0.001080000000     0.299670000000     0.0611784  
H1       H      0.446450000000     0.441340000000     0.702400000000     0.0527922  
H2       H      0.443150000000     0.439950000000     0.794700000000     0.0516271  
H3       H      0.559930000000     0.556000000000     0.802090000000     0.0525319  
H4       H      0.447440000000     0.555810000000     0.298790000000     0.0487013  
H5       H      0.443290000000     0.554960000000     0.206430000000     0.047462   
H6       H      0.552930000000     0.431910000000     0.201340000000     0.0529299  
H7       H      0.412310000000     0.796760000000     0.475950000000     0.0438151  
H8       H      0.412810000000     0.702350000000     0.474000000000     0.0471051  
H9       H      0.568860000000     0.702280000000     0.525940000000     0.0537439  
H10      H      0.572040000000     0.296650000000     0.512110000000     0.0452763  
H11      H      0.573030000000     0.203060000000     0.513300000000     0.045994   
H12      H      0.410600000000     0.200050000000     0.489240000000     0.0511562  
H13      H      0.571940000000     0.696390000000     0.008030000000     0.0442136  
H14      H      0.573010000000     0.790100000000     0.008900000000     0.045641   
H15      H      0.410220000000     0.793060000000     0.987450000000     0.0494661  
H16      H      0.570590000000     0.293090000000     0.990840000000     0.0439448  
H17      H      0.572020000000     0.199410000000     0.985920000000     0.0450156  
H18      H      0.408860000000     0.195150000000     0.004330000000     0.0493995  
H19      H      0.557890000000     0.053410000000     0.698940000000     0.0491698  
H20      H      0.556170000000     0.054400000000     0.791840000000     0.0484152  
H21      H      0.450890000000     0.927510000000     0.792400000000     0.053396   
H22      H      0.556040000000     0.938550000000     0.292460000000     0.049911   
H23      H      0.556800000000     0.936600000000     0.199400000000     0.0479082  
H24      H      0.446510000000     0.059010000000     0.195050000000     0.0523685  
H25      H      0.795850000000     0.581950000000     0.502770000000     0.0465813  
H26      H      0.702720000000     0.581510000000     0.507340000000     0.0477614  
H27      H      0.701900000000     0.417400000000     0.488040000000     0.051461   
H28      H      0.295770000000     0.489610000000     0.418950000000     0.0459235  
H29      H      0.202400000000     0.485540000000     0.417490000000     0.0460559  
H30      H      0.198660000000     0.506800000000     0.581290000000     0.0508939  
H31      H      0.790300000000     0.550550000000     0.951810000000     0.0496341  
H32      H      0.698870000000     0.551020000000     0.950350000000     0.0477533  
H33      H      0.694930000000     0.429380000000     0.062290000000     0.0519488  
H34      H      0.289740000000     0.548430000000     0.062630000000     0.050383   
H35      H      0.197500000000     0.550810000000     0.063990000000     0.0480602  
H36      H      0.191800000000     0.438750000000     0.942600000000     0.0535303  
H37      H      0.071640000000     0.515770000000     0.704000000000     0.0463777  
H38      H      0.071240000000     0.512330000000     0.797520000000     0.0468858  
H39      H      0.907590000000     0.525360000000     0.798330000000     0.0505712  
H40      H      0.985790000000     0.589040000000     0.201700000000     0.0442313  
H41      H      0.980670000000     0.590980000000     0.295920000000     0.0454221  
H42      H      0.003330000000     0.427380000000     0.300620000000     0.0508514  
H43      H      0.927350000000     0.803900000000     0.495690000000     0.0463964  
H44      H      0.926240000000     0.710740000000     0.497010000000     0.0468072  
H45      H      0.090120000000     0.707550000000     0.506850000000     0.0497339  
H46      H      0.012170000000     0.208580000000     0.425190000000     0.0459415  
H47      H      0.015130000000     0.302030000000     0.425400000000     0.0475086  
H48      H      0.993810000000     0.303410000000     0.589220000000     0.0519781  
H49      H      0.699580000000     0.083180000000     0.503310000000     0.0465007  
H50      H      0.792790000000     0.087690000000     0.499920000000     0.0464358  
H51      H      0.800330000000     0.924830000000     0.474350000000     0.0504038  
H52      H      0.295050000000     0.003090000000     0.416030000000     0.0468041  
H53      H      0.202080000000     0.003830000000     0.415690000000     0.0459081  
H54      H      0.200680000000     0.022840000000     0.579840000000     0.0515395  
H55      H      0.071480000000     0.798210000000     0.988880000000     0.046913   
H56      H      0.070700000000     0.704660000000     0.990880000000     0.0457429  
H57      H      0.907650000000     0.705200000000     0.010270000000     0.0482123  
H58      H      0.008560000000     0.299070000000     0.072150000000     0.0515601  
H59      H      0.012300000000     0.205590000000     0.072280000000     0.0476314  
H60      H      0.987190000000     0.203510000000     0.909000000000     0.0519294  
H61      H      0.789530000000     0.077640000000     0.961460000000     0.0482052  
H62      H      0.696850000000     0.074450000000     0.961840000000     0.0471838  
H63      H      0.701150000000     0.916900000000     0.011940000000     0.0499962  
H64      H      0.199850000000     0.053050000000     0.054730000000     0.047922   
H65      H      0.292090000000     0.050410000000     0.056430000000     0.0475945  
H66      H      0.292750000000     0.946360000000     0.927980000000     0.0525219  
H67      H      0.070420000000     0.986890000000     0.792540000000     0.0487543  
H68      H      0.071000000000     0.990790000000     0.699050000000     0.0477443  
H69      H      0.906900000000     0.986910000000     0.696560000000     0.0503417  
H70      H      0.073850000000     0.006100000000     0.293400000000     0.0440703  
H71      H      0.073830000000     0.009040000000     0.199680000000     0.0448564  
H72      H      0.909950000000     0.999380000000     0.198630000000     0.0508849  
N1       N      0.501040000000     0.498190000000     0.805480000000    -0.164236   
N2       N      0.505160000000     0.500080000000     0.696830000000    -0.164745   
N3       N      0.608910000000     0.600100000000     0.682270000000    -0.0828968  
N4       N      0.497540000000     0.493110000000     0.196860000000    -0.165083   
N5       N      0.502700000000     0.493850000000     0.305340000000    -0.165625   
N6       N      0.600280000000     0.387870000000     0.321570000000    -0.0829861  
N7       N      0.491120000000     0.695470000000     0.499140000000    -0.163924   
N8       N      0.491260000000     0.803410000000     0.498550000000    -0.167498   
N9       N      0.622500000000     0.826830000000     0.551460000000    -0.0824872  
N10      N      0.491830000000     0.195090000000     0.501140000000    -0.165213   
N11      N      0.490210000000     0.302810000000     0.503430000000    -0.167938   
N12      N      0.349610000000     0.325050000000     0.485940000000    -0.0851372  
N13      N      0.491600000000     0.798060000000     0.998210000000    -0.165912   
N14      N      0.489980000000     0.690320000000     0.000790000000    -0.168192   
N15      N      0.349020000000     0.668540000000     0.984710000000    -0.0869811  
N16      N      0.490470000000     0.190970000000     0.994900000000    -0.166855   
N17      N      0.488480000000     0.298400000000     0.996730000000    -0.168828   
N18      N      0.347240000000     0.319560000000     0.010400000000    -0.084246   
N19      N      0.502540000000     0.991640000000     0.799150000000    -0.164373   
N20      N      0.504510000000     0.990260000000     0.690500000000    -0.164864   
N21      N      0.417380000000     0.875700000000     0.670990000000    -0.0806379  
N22      N      0.501390000000     0.997410000000     0.190170000000    -0.164629   
N23      N      0.500430000000     0.000010000000     0.298870000000    -0.165422   
N24      N      0.404340000000     0.107820000000     0.314500000000    -0.0841914  
N25      N      0.695670000000     0.499350000000     0.498210000000    -0.16414    
N26      N      0.803180000000     0.499470000000     0.496190000000    -0.166181   
N27      N      0.826030000000     0.357800000000     0.480050000000    -0.084873   
N28      N      0.193920000000     0.496180000000     0.499270000000    -0.164798   
N29      N      0.301350000000     0.497960000000     0.501410000000    -0.167022   
N30      N      0.320520000000     0.516560000000     0.643560000000    -0.0849681  
N31      N      0.689910000000     0.490300000000     0.006320000000    -0.166048   
N32      N      0.797790000000     0.489450000000     0.008370000000    -0.165939   
N33      N      0.815960000000     0.383390000000     0.105780000000    -0.0825127  
N34      N      0.187620000000     0.495390000000     0.002950000000    -0.164406   
N35      N      0.295640000000     0.492460000000     0.001100000000    -0.165032   
N36      N      0.310840000000     0.391820000000     0.897220000000    -0.0811686  
N37      N      0.989270000000     0.517980000000     0.804470000000    -0.164599   
N38      N      0.989480000000     0.518460000000     0.696490000000    -0.166875   
N39      N      0.848420000000     0.528820000000     0.672650000000    -0.0847867  
N40      N      0.991760000000     0.509310000000     0.304870000000    -0.164852   
N41      N      0.994490000000     0.506630000000     0.196880000000    -0.167232   
N42      N      0.015060000000     0.364610000000     0.178530000000    -0.08753    
N43      N      0.008200000000     0.702510000000     0.501950000000    -0.164929   
N44      N      0.009660000000     0.810450000000     0.497200000000    -0.167037   
N45      N      0.151240000000     0.832540000000     0.503040000000    -0.0852048  
N46      N      0.004490000000     0.309460000000     0.507400000000    -0.163764   
N47      N      0.004200000000     0.201200000000     0.507520000000    -0.165962   
N48      N      0.987070000000     0.178430000000     0.649130000000    -0.0837418  
N49      N      0.802950000000     0.006370000000     0.487950000000    -0.164964   
N50      N      0.695480000000     0.001460000000     0.488220000000    -0.165919   
N51      N      0.681530000000     0.860620000000     0.455420000000    -0.0812056  
N52      N      0.194810000000     0.012970000000     0.497860000000    -0.165232   
N53      N      0.302010000000     0.008900000000     0.498610000000    -0.167231   
N54      N      0.324400000000     0.024430000000     0.640560000000    -0.0836749  
N55      N      0.989030000000     0.698630000000     0.000250000000    -0.165575   
N56      N      0.990380000000     0.806370000000     0.002030000000    -0.167213   
N57      N      0.856520000000     0.841670000000     0.027420000000    -0.0633249  
N58      N      0.999720000000     0.197860000000     0.990640000000    -0.164209   
N59      N      0.998430000000     0.306010000000     0.989970000000    -0.166307   
N60      N      0.977870000000     0.328000000000     0.848700000000    -0.0837646  
N61      N      0.692420000000     0.996200000000     0.989630000000    -0.165775   
N62      N      0.799470000000     0.999300000000     0.987320000000    -0.167426   
N63      N      0.835390000000     0.863700000000     0.990200000000    -0.0664846  
N64      N      0.299400000000     0.997640000000     0.992650000000    -0.165404   
N65      N      0.191470000000     0.000590000000     0.990560000000    -0.166316   
N66      N      0.171960000000     0.914400000000     0.874980000000    -0.0845386  
N67      N      0.988850000000     0.989950000000     0.691380000000    -0.164954   
N68      N      0.988220000000     0.989040000000     0.799150000000    -0.167292   
N69      N      0.846660000000     0.986320000000     0.822020000000    -0.0849842  
N70      N      0.991820000000     0.004460000000     0.192560000000    -0.164682   
N71      N      0.991660000000     0.004680000000     0.300600000000    -0.167172   
N72      N      0.850370000000     0.998420000000     0.324170000000    -0.0860592  
O1       O      0.994970000000     0.002240000000     0.995250000000    -0.371156   
O2       O      0.956460000000     0.980980000000     0.114830000000    -0.294308   
O3       O      0.115100000000     0.032720000000     0.023140000000    -0.295025   
O4       O      0.025270000000     0.881770000000     0.971310000000    -0.294444   
O5       O      0.028740000000     0.026740000000     0.115220000000    -0.296193   
O6       O      0.962440000000     0.886050000000     0.029150000000    -0.291633   
O7       O      0.112270000000     0.970810000000     0.964420000000    -0.295713   
O8       O      0.958870000000     0.022360000000     0.875610000000    -0.291156   
O9       O      0.021970000000     0.120410000000     0.027840000000    -0.293523   
O10      O      0.024290000000     0.967220000000     0.876910000000    -0.29284    
O11      O      0.974010000000     0.120300000000     0.956380000000    -0.293195   
O12      O      0.876020000000     0.038400000000     0.965310000000    -0.292989   
O13      O      0.876840000000     0.971540000000     0.018640000000    -0.294979   
O14      O      0.999000000000     0.005800000000     0.496290000000    -0.371977   
O15      O      0.962020000000     0.033520000000     0.379150000000    -0.288864   
O16      O      0.118890000000     0.988010000000     0.461240000000    -0.296868   
O17      O      0.023680000000     0.121020000000     0.540980000000    -0.287489   
O18      O      0.028570000000     0.979430000000     0.376810000000    -0.295189   
O19      O      0.980280000000     0.126230000000     0.466880000000    -0.293159   
O20      O      0.116830000000     0.033020000000     0.534200000000    -0.295123   
O21      O      0.954630000000     0.973420000000     0.611040000000    -0.29239    
O22      O      0.040780000000     0.889210000000     0.469470000000    -0.287537   
O23      O      0.026820000000     0.018910000000     0.617570000000    -0.296907   
O24      O      0.971150000000     0.886560000000     0.519310000000    -0.297472   
O25      O      0.879490000000     0.968400000000     0.508020000000    -0.297949   
O26      O      0.880220000000     0.047710000000     0.475340000000    -0.290373   
O27      O      0.992640000000     0.502560000000     0.000490000000    -0.371964   
O28      O      0.016660000000     0.386120000000     0.955620000000    -0.288453   
O29      O      0.972710000000     0.469170000000     0.119860000000    -0.291774   
O30      O      0.111360000000     0.529100000000     0.033030000000    -0.295181   
O31      O      0.976440000000     0.381070000000     0.031210000000    -0.291978   
O32      O      0.109410000000     0.470870000000     0.970010000000    -0.296977   
O33      O      0.017190000000     0.542530000000     0.118800000000    -0.293655   
O34      O      0.951450000000     0.620930000000     0.980670000000    -0.295304   
O35      O      0.878260000000     0.461860000000     0.035920000000    -0.287854   
O36      O      0.027440000000     0.621840000000     0.020040000000    -0.297883   
O37      O      0.872790000000     0.524540000000     0.978110000000    -0.302284   
O38      O      0.953630000000     0.535330000000     0.883890000000    -0.293953   
O39      O      0.025050000000     0.488400000000     0.879520000000    -0.295047   
O40      O      0.998590000000     0.506170000000     0.500940000000    -0.370599   
O41      O      0.978630000000     0.387250000000     0.541730000000    -0.290014   
O42      O      0.017920000000     0.474810000000     0.381560000000    -0.299371   
O43      O      0.879420000000     0.539080000000     0.475740000000    -0.29358    
O44      O      0.024690000000     0.386850000000     0.469350000000    -0.295552   
O45      O      0.881080000000     0.466320000000     0.521510000000    -0.286836   
O46      O      0.969180000000     0.545410000000     0.383180000000    -0.291788   
O47      O      0.042090000000     0.623490000000     0.524870000000    -0.292334   
O48      O      0.115900000000     0.476450000000     0.461970000000    -0.293033   
O49      O      0.968830000000     0.626580000000     0.480800000000    -0.298554   
O50      O      0.117930000000     0.522630000000     0.534350000000    -0.299252   
O51      O      0.028530000000     0.537080000000     0.619370000000    -0.295557   
O52      O      0.958570000000     0.487700000000     0.619250000000    -0.288455   
O53      O      0.496220000000     0.994470000000     0.994660000000    -0.37023    
O54      O      0.459160000000     0.875680000000     0.970700000000    -0.29626    
O55      O      0.616710000000     0.961490000000     0.019060000000    -0.297369   
O56      O      0.527280000000     0.026390000000     0.877060000000    -0.296284   
O57      O      0.528050000000     0.875010000000     0.021450000000    -0.298273   
O58      O      0.470960000000     0.961710000000     0.876580000000    -0.295805   
O59      O      0.614210000000     0.029030000000     0.966420000000    -0.300879   
O60      O      0.458940000000     0.112760000000     0.020960000000    -0.298972   
O61      O      0.530070000000     0.964330000000     0.112590000000    -0.294354   
O62      O      0.526560000000     0.114920000000     0.968720000000    -0.300339   
O63      O      0.469920000000     0.025450000000     0.112270000000    -0.298731   
O64      O      0.376670000000     0.021830000000     0.027940000000    -0.299191   
O65      O      0.376780000000     0.969060000000     0.960570000000    -0.297568   
O66      O      0.498590000000     0.999390000000     0.494930000000    -0.371652   
O67      O      0.378790000000     0.982570000000     0.533470000000    -0.290498   
O68      O      0.460860000000     0.117640000000     0.471440000000    -0.2928     
O69      O      0.532910000000     0.026040000000     0.613590000000    -0.29248    
O70      O      0.379110000000     0.024270000000     0.458780000000    -0.296252   
O71      O      0.473190000000     0.965080000000     0.611150000000    -0.290643   
O72      O      0.528140000000     0.118110000000     0.524460000000    -0.297782   
O73      O      0.617230000000     0.966690000000     0.465320000000    -0.289336   
O74      O      0.473020000000     0.031320000000     0.377650000000    -0.293486   
O75      O      0.618860000000     0.033650000000     0.518600000000    -0.294987   
O76      O      0.527310000000     0.965390000000     0.376780000000    -0.293301   
O77      O      0.528470000000     0.879260000000     0.473270000000    -0.29035    
O78      O      0.455050000000     0.881860000000     0.517410000000    -0.290175   
O79      O      0.493120000000     0.494190000000     0.001320000000    -0.370605   
O80      O      0.527310000000     0.613590000000     0.978300000000    -0.297649   
O81      O      0.373010000000     0.520270000000     0.034640000000    -0.294492   
O82      O      0.467120000000     0.466720000000     0.881330000000    -0.293682   
O83      O      0.456680000000     0.612440000000     0.026650000000    -0.292591   
O84      O      0.527490000000     0.527390000000     0.885060000000    -0.296151   
O85      O      0.374130000000     0.468110000000     0.967180000000    -0.290356   
O86      O      0.523680000000     0.373990000000     0.024950000000    -0.299213   
O87      O      0.466120000000     0.525250000000     0.120160000000    -0.296269   
O88      O      0.456980000000     0.376930000000     0.971350000000    -0.29178    
O89      O      0.521850000000     0.460120000000     0.118320000000    -0.298105   
O90      O      0.611490000000     0.460150000000     0.033340000000    -0.300152   
O91      O      0.613800000000     0.523220000000     0.975660000000    -0.300013   
O92      O      0.498320000000     0.499010000000     0.500860000000    -0.370481   
O93      O      0.378050000000     0.519070000000     0.462950000000    -0.295513   
O94      O      0.458150000000     0.381710000000     0.528240000000    -0.290567   
O95      O      0.530240000000     0.464010000000     0.385110000000    -0.289495   
O96      O      0.379100000000     0.478310000000     0.538250000000    -0.290413   
O97      O      0.472540000000     0.526940000000     0.382070000000    -0.298159   
O98      O      0.528050000000     0.378450000000     0.479010000000    -0.296526   
O99      O      0.618780000000     0.535320000000     0.522910000000    -0.292847   
O100     O      0.473260000000     0.469820000000     0.619600000000    -0.294908   
O101     O      0.618190000000     0.463160000000     0.476660000000    -0.29464    
O102     O      0.532570000000     0.531240000000     0.617390000000    -0.288143   
O103     O      0.526340000000     0.618720000000     0.525170000000    -0.295833   
O104     O      0.459230000000     0.616890000000     0.472080000000    -0.29338    
Zn1      Zn     0.949590000000     0.961900000000     0.038990000000     0.465955   
Zn2      Zn     0.039190000000     0.044390000000     0.039390000000     0.452136   
Zn3      Zn     0.037840000000     0.956810000000     0.953240000000     0.463406   
Zn4      Zn     0.952350000000     0.045230000000     0.949910000000     0.45771    
Zn5      Zn     0.956460000000     0.052420000000     0.455530000000     0.454056   
Zn6      Zn     0.045400000000     0.966420000000     0.451990000000     0.458603   
Zn7      Zn     0.040430000000     0.043910000000     0.545830000000     0.459722   
Zn8      Zn     0.952110000000     0.960350000000     0.532820000000     0.459408   
Zn9      Zn     0.034430000000     0.462940000000     0.952500000000     0.459633   
Zn10     Zn     0.956010000000     0.454850000000     0.045540000000     0.461993   
Zn11     Zn     0.036090000000     0.547710000000     0.042120000000     0.455359   
Zn12     Zn     0.944290000000     0.544850000000     0.961700000000     0.45914    
Zn13     Zn     0.955560000000     0.462700000000     0.544780000000     0.457045   
Zn14     Zn     0.038490000000     0.462450000000     0.454800000000     0.457657   
Zn15     Zn     0.955000000000     0.552970000000     0.461170000000     0.455235   
Zn16     Zn     0.045450000000     0.546410000000     0.543610000000     0.457253   
Zn17     Zn     0.451940000000     0.951400000000     0.951730000000     0.456908   
Zn18     Zn     0.541610000000     0.950200000000     0.035930000000     0.45615    
Zn19     Zn     0.539350000000     0.040060000000     0.953020000000     0.460841   
Zn20     Zn     0.451760000000     0.037040000000     0.037760000000     0.460404   
Zn21     Zn     0.452420000000     0.958140000000     0.537200000000     0.462845   
Zn22     Zn     0.454340000000     0.041900000000     0.451930000000     0.461798   
Zn23     Zn     0.543600000000     0.042950000000     0.537070000000     0.45707    
Zn24     Zn     0.541560000000     0.953660000000     0.453530000000     0.459266   
Zn25     Zn     0.539180000000     0.538410000000     0.961480000000     0.458607   
Zn26     Zn     0.448400000000     0.536760000000     0.044680000000     0.457681   
Zn27     Zn     0.449160000000     0.453020000000     0.956230000000     0.46255    
Zn28     Zn     0.535960000000     0.448350000000     0.043000000000     0.462308   
Zn29     Zn     0.453170000000     0.539630000000     0.456010000000     0.455799   
Zn30     Zn     0.453580000000     0.458330000000     0.545400000000     0.461241   
Zn31     Zn     0.542640000000     0.452560000000     0.461720000000     0.460924   
Zn32     Zn     0.543090000000     0.544640000000     0.540530000000     0.459242   


