data_structure

_audit_creation_method RASPA-1.0
_audit_creation_date 2023-5-19
_audit_author_name 'Poobodin Mano'

_cell_length_a    26.4019
_cell_length_b    26.4179
_cell_length_c    26.3095
_cell_angle_alpha 90
_cell_angle_beta  90
_cell_angle_gamma 90
_cell_volume      18350.4

_symmetry_cell_setting          triclinic
_symmetry_space_group_name_Hall 'P 1'
_symmetry_space_group_name_H-M  'P 1'
_symmetry_Int_Tables_number     1

_symmetry_equiv_pos_as_xyz 'x,y,z'

loop_
_atom_site_label
_atom_site_type_symbol
_atom_site_fract_x
_atom_site_fract_y
_atom_site_fract_z
_atom_site_charge
C1       C      0.998770000000     0.999980000000     0.140250000000     0.309325   
C2       C      0.138000000000     0.995270000000     0.996900000000     0.310715   
C3       C      0.997240000000     0.857190000000     0.001360000000     0.309117   
C4       C      0.996740000000     0.999540000000     0.858790000000     0.309581   
C5       C      0.998470000000     0.138280000000     0.001380000000     0.309451   
C6       C      0.857850000000     0.996120000000     0.998640000000     0.310347   
C7       C      0.998380000000     0.998850000000     0.359080000000     0.309466   
C8       C      0.138160000000     0.997760000000     0.501830000000     0.311296   
C9       C      0.997430000000     0.138310000000     0.497660000000     0.310232   
C10      C      0.996960000000     0.998550000000     0.639800000000     0.308613   
C11      C      0.998360000000     0.857140000000     0.497380000000     0.309179   
C12      C      0.857410000000     0.997040000000     0.500870000000     0.311365   
C13      C      0.000280000000     0.496070000000     0.859240000000     0.308403   
C14      C      0.857560000000     0.499420000000     0.998180000000     0.30818    
C15      C      0.998240000000     0.356520000000     0.000290000000     0.309995   
C16      C      0.995810000000     0.495940000000     0.140430000000     0.308836   
C17      C      0.997510000000     0.638920000000     0.000450000000     0.30982    
C18      C      0.138430000000     0.499320000000     0.002680000000     0.307672   
C19      C      0.997880000000     0.356400000000     0.499140000000     0.310704   
C20      C      0.999690000000     0.496840000000     0.639860000000     0.305612   
C21      C      0.138770000000     0.498060000000     0.497740000000     0.309177   
C22      C      0.998180000000     0.638870000000     0.498960000000     0.309809   
C23      C      0.857260000000     0.497620000000     0.500410000000     0.309012   
C24      C      0.996350000000     0.496680000000     0.359430000000     0.307989   
C25      C      0.357230000000     0.996280000000     0.998270000000     0.31179    
C26      C      0.497330000000     0.997520000000     0.140170000000     0.309642   
C27      C      0.497970000000     0.857160000000     0.998800000000     0.310846   
C28      C      0.638630000000     0.996490000000     0.999540000000     0.311717   
C29      C      0.497860000000     0.137320000000     0.998950000000     0.3099     
C30      C      0.498480000000     0.997680000000     0.858920000000     0.312393   
C31      C      0.357260000000     0.997510000000     0.500800000000     0.311929   
C32      C      0.497440000000     0.997820000000     0.359140000000     0.309779   
C33      C      0.497750000000     0.137770000000     0.500470000000     0.310213   
C34      C      0.638310000000     0.997460000000     0.500060000000     0.311797   
C35      C      0.497810000000     0.857600000000     0.500550000000     0.310127   
C36      C      0.498190000000     0.997940000000     0.640490000000     0.312419   
C37      C      0.357040000000     0.497900000000     0.003260000000     0.308645   
C38      C      0.498220000000     0.356720000000     0.998040000000     0.31038    
C39      C      0.496900000000     0.497070000000     0.859340000000     0.308778   
C40      C      0.638940000000     0.498720000000     0.000110000000     0.308458   
C41      C      0.499230000000     0.497220000000     0.140210000000     0.309625   
C42      C      0.497560000000     0.637980000000     0.997860000000     0.311477   
C43      C      0.357230000000     0.498220000000     0.496770000000     0.309351   
C44      C      0.497510000000     0.357040000000     0.501510000000     0.310841   
C45      C      0.499040000000     0.497580000000     0.359200000000     0.309666   
C46      C      0.638800000000     0.497210000000     0.498800000000     0.309328   
C47      C      0.497110000000     0.497600000000     0.640150000000     0.308888   
C48      C      0.498330000000     0.638330000000     0.501480000000     0.310748   
C49      C      0.451000000000     0.497630000000     0.776280000000    -0.00494723 
C50      C      0.496870000000     0.497120000000     0.803310000000    -0.0647324  
C51      C      0.542780000000     0.496770000000     0.776360000000    -0.00492997 
C52      C      0.542840000000     0.497800000000     0.723230000000    -0.00496878 
C53      C      0.496980000000     0.497430000000     0.696190000000    -0.0647265  
C54      C      0.451060000000     0.496890000000     0.723120000000    -0.00493484 
C55      C      0.499020000000     0.451460000000     0.223220000000    -0.00453659 
C56      C      0.499510000000     0.497280000000     0.196190000000    -0.0649497  
C57      C      0.500000000000     0.543200000000     0.223060000000    -0.00455216 
C58      C      0.499010000000     0.543300000000     0.276190000000    -0.00453801 
C59      C      0.499350000000     0.497470000000     0.303220000000    -0.064985   
C60      C      0.499860000000     0.451550000000     0.276360000000    -0.00454487 
C61      C      0.529640000000     0.774640000000     0.534370000000    -0.00642429 
C62      C      0.497830000000     0.801500000000     0.501010000000    -0.0652117  
C63      C      0.466040000000     0.774180000000     0.468090000000    -0.00658719 
C64      C      0.466140000000     0.721320000000     0.468410000000    -0.00644044 
C65      C      0.498030000000     0.694430000000     0.501670000000    -0.0657511  
C66      C      0.529740000000     0.721720000000     0.534700000000    -0.00639839 
C67      C      0.529900000000     0.274030000000     0.468710000000    -0.00641649 
C68      C      0.497710000000     0.300940000000     0.501660000000    -0.0657819  
C69      C      0.465620000000     0.273670000000     0.534340000000    -0.00634271 
C70      C      0.465650000000     0.220760000000     0.533980000000    -0.00644507 
C71      C      0.497770000000     0.193880000000     0.500930000000    -0.0651278  
C72      C      0.529920000000     0.221160000000     0.468340000000    -0.00662178 
C73      C      0.529640000000     0.773800000000     0.031390000000    -0.00664965 
C74      C      0.497960000000     0.801080000000     0.998350000000    -0.0651297  
C75      C      0.466280000000     0.774220000000     0.964860000000    -0.00627424 
C76      C      0.466200000000     0.721320000000     0.964530000000    -0.00624791 
C77      C      0.497820000000     0.694060000000     0.997670000000    -0.0656794  
C78      C      0.529580000000     0.720940000000     0.031050000000    -0.00650063 
C79      C      0.530230000000     0.273300000000     0.965360000000    -0.00646031 
C80      C      0.497950000000     0.300580000000     0.997850000000    -0.0651939  
C81      C      0.465540000000     0.273650000000     0.030560000000    -0.0067177  
C82      C      0.465480000000     0.220760000000     0.030890000000    -0.00693098 
C83      C      0.497840000000     0.193460000000     0.998510000000    -0.0646347  
C84      C      0.530180000000     0.220370000000     0.965690000000    -0.00654218 
C85      C      0.544350000000     0.998430000000     0.776190000000    -0.00439667 
C86      C      0.498460000000     0.997960000000     0.803100000000    -0.0670332  
C87      C      0.452500000000     0.997590000000     0.776300000000    -0.0043483  
C88      C      0.452430000000     0.998530000000     0.723230000000    -0.00434554 
C89      C      0.498310000000     0.998030000000     0.696320000000    -0.067069   
C90      C      0.544270000000     0.997560000000     0.723110000000    -0.00431369 
C91      C      0.543220000000     0.997400000000     0.223070000000    -0.00502285 
C92      C      0.497310000000     0.997750000000     0.196150000000    -0.0657295  
C93      C      0.451420000000     0.998200000000     0.223110000000    -0.00507851 
C94      C      0.451450000000     0.997330000000     0.276250000000    -0.00495175 
C95      C      0.497370000000     0.997850000000     0.303170000000    -0.0658808  
C96      C      0.543250000000     0.998370000000     0.276200000000    -0.00497581 
C97      C      0.721620000000     0.451420000000     0.499380000000    -0.00496948 
C98      C      0.694650000000     0.497240000000     0.498740000000    -0.0649041  
C99      C      0.721460000000     0.543140000000     0.498780000000    -0.00484893 
C100     C      0.774440000000     0.543240000000     0.498520000000    -0.00468926 
C101     C      0.801410000000     0.497460000000     0.500150000000    -0.0648494  
C102     C      0.774600000000     0.451550000000     0.501010000000    -0.00474969 
C103     C      0.221490000000     0.544080000000     0.497840000000    -0.00468311 
C104     C      0.194620000000     0.498200000000     0.496940000000    -0.0648583  
C105     C      0.221530000000     0.452390000000     0.495340000000    -0.00461918 
C106     C      0.274510000000     0.452410000000     0.495830000000    -0.00488863 
C107     C      0.301380000000     0.498290000000     0.496010000000    -0.0648109  
C108     C      0.274480000000     0.544140000000     0.496450000000    -0.00498551 
C109     C      0.774890000000     0.453620000000     0.999070000000    -0.00482763 
C110     C      0.801660000000     0.499560000000     0.998080000000    -0.0640516  
C111     C      0.774610000000     0.545320000000     0.997870000000    -0.00502985 
C112     C      0.721590000000     0.545120000000     0.999650000000    -0.00490754 
C113     C      0.694840000000     0.499130000000     0.999800000000    -0.0642898  
C114     C      0.721930000000     0.453410000000     0.998980000000    -0.00497576 
C115     C      0.221520000000     0.544810000000     0.004680000000    -0.00514081 
C116     C      0.194320000000     0.499150000000     0.003880000000    -0.0638569  
C117     C      0.220940000000     0.453110000000     0.003740000000    -0.00502882 
C118     C      0.273920000000     0.452710000000     0.004940000000    -0.00492697 
C119     C      0.301150000000     0.498350000000     0.004420000000    -0.0645742  
C120     C      0.274540000000     0.544410000000     0.004000000000    -0.00470504 
C121     C      0.000240000000     0.541990000000     0.776300000000    -0.00360442 
C122     C      0.000940000000     0.496040000000     0.803160000000    -0.0646303  
C123     C      0.001610000000     0.450290000000     0.775990000000    -0.00435749 
C124     C      0.000410000000     0.450510000000     0.722790000000    -0.00559661 
C125     C      0.000420000000     0.496500000000     0.695950000000    -0.0624234  
C126     C      0.000920000000     0.542220000000     0.723140000000    -0.00596128 
C127     C      0.994570000000     0.450100000000     0.223500000000    -0.00439296 
C128     C      0.995160000000     0.495880000000     0.196400000000    -0.0648135  
C129     C      0.995740000000     0.541840000000     0.223200000000    -0.00420099 
C130     C      0.995070000000     0.542070000000     0.276320000000    -0.00496479 
C131     C      0.995650000000     0.496330000000     0.303440000000    -0.0640104  
C132     C      0.995750000000     0.450330000000     0.276670000000    -0.00477701 
C133     C      0.044280000000     0.774440000000     0.496580000000    -0.00499771 
C134     C      0.998400000000     0.801340000000     0.496980000000    -0.0657543  
C135     C      0.952500000000     0.774510000000     0.497920000000    -0.00527516 
C136     C      0.952450000000     0.721570000000     0.497650000000    -0.00481237 
C137     C      0.998310000000     0.694670000000     0.498330000000    -0.0665478  
C138     C      0.044230000000     0.721500000000     0.498170000000    -0.00444281 
C139     C      0.043420000000     0.220820000000     0.497860000000    -0.00460757 
C140     C      0.997470000000     0.194070000000     0.497290000000    -0.0661456  
C141     C      0.951610000000     0.220990000000     0.497230000000    -0.00513128 
C142     C      0.951730000000     0.273910000000     0.498770000000    -0.00463638 
C143     C      0.997690000000     0.300650000000     0.498570000000    -0.0669168  
C144     C      0.043530000000     0.273730000000     0.497570000000    -0.00420649 
C145     C      0.774470000000     0.029810000000     0.468450000000    -0.00614755 
C146     C      0.801350000000     0.997190000000     0.500970000000    -0.0669543  
C147     C      0.774130000000     0.964690000000     0.533240000000    -0.00649917 
C148     C      0.721220000000     0.964760000000     0.532940000000    -0.00620691 
C149     C      0.694360000000     0.997360000000     0.500370000000    -0.0672555  
C150     C      0.721600000000     0.029900000000     0.468170000000    -0.00588015 
C151     C      0.221440000000     0.029820000000     0.534490000000    -0.00605207 
C152     C      0.194210000000     0.997380000000     0.502160000000    -0.0669121  
C153     C      0.221100000000     0.964810000000     0.469600000000    -0.00659888 
C154     C      0.273960000000     0.964790000000     0.469240000000    -0.0062762  
C155     C      0.301210000000     0.997370000000     0.501390000000    -0.0672997  
C156     C      0.274350000000     0.029830000000     0.534100000000    -0.00568742 
C157     C      0.997180000000     0.774700000000     0.955170000000    -0.00508736 
C158     C      0.996920000000     0.801390000000     0.001340000000    -0.0656022  
C159     C      0.996640000000     0.774330000000     0.047280000000    -0.00544243 
C160     C      0.997670000000     0.721380000000     0.047000000000    -0.00482892 
C161     C      0.997180000000     0.694720000000     0.000800000000    -0.0663791  
C162     C      0.996430000000     0.721800000000     0.954900000000    -0.0048167  
C163     C      0.044370000000     0.220980000000     0.002190000000    -0.00492246 
C164     C      0.998500000000     0.194080000000     0.001810000000    -0.0658708  
C165     C      0.952580000000     0.220900000000     0.001040000000    -0.00525543 
C166     C      0.952520000000     0.273820000000     0.001420000000    -0.00479655 
C167     C      0.998380000000     0.300730000000     0.000760000000    -0.0666668  
C168     C      0.044310000000     0.273910000000     0.000780000000    -0.00444546 
C169     C      0.774770000000     0.962890000000     0.030650000000    -0.00696032 
C170     C      0.801770000000     0.995600000000     0.998330000000    -0.0658875  
C171     C      0.774600000000     0.028350000000     0.966220000000    -0.00630952 
C172     C      0.721710000000     0.028570000000     0.966600000000    -0.00563275 
C173     C      0.694710000000     0.996040000000     0.999080000000    -0.0668629  
C174     C      0.721860000000     0.963100000000     0.031010000000    -0.00631268 
C175     C      0.220860000000     0.028100000000     0.029320000000    -0.00650928 
C176     C      0.194100000000     0.995220000000     0.996930000000    -0.0659133  
C177     C      0.221500000000     0.962610000000     0.964930000000    -0.00658745 
C178     C      0.274450000000     0.962900000000     0.965350000000    -0.00595222 
C179     C      0.301150000000     0.995820000000     0.997770000000    -0.0668514  
C180     C      0.273700000000     0.028400000000     0.029720000000    -0.00600024 
C181     C      0.997020000000     0.953530000000     0.776060000000    -0.00466211 
C182     C      0.996290000000     0.999520000000     0.802810000000    -0.0664463  
C183     C      0.995490000000     0.045260000000     0.775660000000    -0.00433094 
C184     C      0.996490000000     0.044990000000     0.722510000000    -0.00480988 
C185     C      0.996520000000     0.998950000000     0.695780000000    -0.065669   
C186     C      0.996260000000     0.953240000000     0.722960000000    -0.00536527 
C187     C      0.952850000000     0.000510000000     0.223040000000    -0.004848   
C188     C      0.998800000000     0.000620000000     0.196180000000    -0.065838   
C189     C      0.044670000000     0.000390000000     0.223170000000    -0.00391004 
C190     C      0.044560000000     0.998970000000     0.276300000000    -0.00488504 
C191     C      0.998600000000     0.999560000000     0.303140000000    -0.066488   
C192     C      0.952760000000     0.000890000000     0.276140000000    -0.00409046 
H1       H      0.415120000000     0.497720000000     0.796280000000     0.0497197  
H2       H      0.578630000000     0.496600000000     0.796410000000     0.0498139  
H3       H      0.578730000000     0.498020000000     0.703260000000     0.0497735  
H4       H      0.415220000000     0.496790000000     0.703050000000     0.0497266  
H5       H      0.498800000000     0.415600000000     0.203230000000     0.0488231  
H6       H      0.500170000000     0.578990000000     0.202950000000     0.0489344  
H7       H      0.498800000000     0.579160000000     0.296180000000     0.0488623  
H8       H      0.499940000000     0.415760000000     0.296470000000     0.0488716  
H9       H      0.554620000000     0.794430000000     0.560280000000     0.0524831  
H10      H      0.441010000000     0.793580000000     0.441910000000     0.0521461  
H11      H      0.441180000000     0.701570000000     0.442430000000     0.0521768  
H12      H      0.554790000000     0.702270000000     0.560800000000     0.0522499  
H13      H      0.555130000000     0.293750000000     0.442990000000     0.0521861  
H14      H      0.440340000000     0.293150000000     0.560200000000     0.0522653  
H15      H      0.440390000000     0.200990000000     0.559630000000     0.0525314  
H16      H      0.555180000000     0.201750000000     0.442410000000     0.0521807  
H17      H      0.554570000000     0.793210000000     0.057650000000     0.0522931  
H18      H      0.441390000000     0.794000000000     0.938860000000     0.052651   
H19      H      0.441260000000     0.701850000000     0.938340000000     0.0524168  
H20      H      0.554450000000     0.701210000000     0.057120000000     0.0523216  
H21      H      0.555700000000     0.292770000000     0.939680000000     0.0522723  
H22      H      0.440140000000     0.293370000000     0.056120000000     0.0521805  
H23      H      0.440040000000     0.201340000000     0.056630000000     0.0522072  
H24      H      0.555600000000     0.200600000000     0.940200000000     0.0525397  
H25      H      0.580210000000     0.998530000000     0.796220000000     0.0483377  
H26      H      0.416690000000     0.997400000000     0.796410000000     0.0484703  
H27      H      0.416560000000     0.998700000000     0.703220000000     0.0483839  
H28      H      0.580080000000     0.997370000000     0.702980000000     0.0483585  
H29      H      0.579060000000     0.997230000000     0.203000000000     0.048177   
H30      H      0.415570000000     0.998280000000     0.203070000000     0.048091   
H31      H      0.415620000000     0.997110000000     0.296330000000     0.0481007  
H32      H      0.579110000000     0.998600000000     0.296230000000     0.0480972  
H33      H      0.701700000000     0.415570000000     0.499630000000     0.0483872  
H34      H      0.701420000000     0.578930000000     0.498190000000     0.0484093  
H35      H      0.794350000000     0.579100000000     0.497950000000     0.0480497  
H36      H      0.794650000000     0.415780000000     0.502000000000     0.0480738  
H37      H      0.201480000000     0.579880000000     0.498870000000     0.0479736  
H38      H      0.201580000000     0.416550000000     0.494780000000     0.0482307  
H39      H      0.294500000000     0.416600000000     0.495390000000     0.0484478  
H40      H      0.294450000000     0.579960000000     0.496870000000     0.0483716  
H41      H      0.794970000000     0.417850000000     0.999150000000     0.0484995  
H42      H      0.794480000000     0.581200000000     0.997370000000     0.0489258  
H43      H      0.701460000000     0.580860000000     0.999970000000     0.0488414  
H44      H      0.702120000000     0.417490000000     0.999160000000     0.0486854  
H45      H      0.201770000000     0.580760000000     0.004650000000     0.0490077  
H46      H      0.200740000000     0.417410000000     0.003340000000     0.048374   
H47      H      0.293630000000     0.416730000000     0.005020000000     0.0485323  
H48      H      0.294770000000     0.580090000000     0.003720000000     0.0487393  
H49      H      0.999880000000     0.577750000000     0.796470000000     0.0477871  
H50      H      0.001940000000     0.414400000000     0.795920000000     0.0488979  
H51      H      0.000240000000     0.414770000000     0.702580000000     0.0494764  
H52      H      0.000760000000     0.578140000000     0.703260000000     0.0493714  
H53      H      0.994320000000     0.414230000000     0.203550000000     0.0491647  
H54      H      0.996020000000     0.577600000000     0.203030000000     0.048536   
H55      H      0.995150000000     0.577980000000     0.296210000000     0.0493267  
H56      H      0.995980000000     0.414590000000     0.296880000000     0.0494405  
H57      H      0.080130000000     0.794380000000     0.496130000000     0.0481414  
H58      H      0.916670000000     0.794490000000     0.498140000000     0.0481915  
H59      H      0.916580000000     0.701650000000     0.497880000000     0.0478126  
H60      H      0.080060000000     0.701490000000     0.498450000000     0.0476967  
H61      H      0.079230000000     0.200780000000     0.497810000000     0.0483924  
H62      H      0.915730000000     0.201090000000     0.497070000000     0.0483418  
H63      H      0.915930000000     0.293950000000     0.499300000000     0.0478612  
H64      H      0.079420000000     0.293610000000     0.497520000000     0.0479802  
H65      H      0.794200000000     0.055370000000     0.443080000000     0.0518784  
H66      H      0.793620000000     0.939070000000     0.558750000000     0.0518607  
H67      H      0.701440000000     0.939210000000     0.558280000000     0.0518275  
H68      H      0.702160000000     0.055510000000     0.442620000000     0.0515067  
H69      H      0.201950000000     0.055410000000     0.560030000000     0.0519917  
H70      H      0.201360000000     0.939290000000     0.444190000000     0.0518556  
H71      H      0.293390000000     0.939260000000     0.443590000000     0.0515011  
H72      H      0.294140000000     0.055390000000     0.559430000000     0.0518436  
H73      H      0.997190000000     0.794800000000     0.919260000000     0.0482648  
H74      H      0.996610000000     0.794130000000     0.083340000000     0.0489038  
H75      H      0.998030000000     0.701250000000     0.082880000000     0.0483417  
H76      H      0.996210000000     0.702040000000     0.918810000000     0.0480836  
H77      H      0.080240000000     0.201060000000     0.002520000000     0.0485731  
H78      H      0.916740000000     0.200920000000     0.000850000000     0.0485976  
H79      H      0.916640000000     0.293720000000     0.001280000000     0.0482049  
H80      H      0.080140000000     0.293910000000     0.000530000000     0.048099   
H81      H      0.794450000000     0.937170000000     0.055900000000     0.0522154  
H82      H      0.794130000000     0.054060000000     0.940850000000     0.0522836  
H83      H      0.702060000000     0.054390000000     0.941430000000     0.0518758  
H84      H      0.702290000000     0.937490000000     0.056470000000     0.051652   
H85      H      0.201040000000     0.053770000000     0.054510000000     0.0522452  
H86      H      0.202100000000     0.936810000000     0.939520000000     0.0522462  
H87      H      0.294410000000     0.937290000000     0.940200000000     0.0519853  
H88      H      0.292970000000     0.054240000000     0.055170000000     0.0515873  
H89      H      0.997430000000     0.917780000000     0.796250000000     0.0483402  
H90      H      0.995100000000     0.081180000000     0.795540000000     0.0488859  
H91      H      0.996470000000     0.080710000000     0.702280000000     0.0491806  
H92      H      0.996460000000     0.917290000000     0.703130000000     0.0490326  
H93      H      0.917030000000     0.000790000000     0.202940000000     0.0486802  
H94      H      0.080540000000     0.000190000000     0.203170000000     0.0484467  
H95      H      0.080350000000     0.998170000000     0.296420000000     0.0484431  
H96      H      0.916870000000     0.001220000000     0.296110000000     0.0485686  
O1       O      0.997920000000     0.997700000000     0.999510000000    -0.365157   
O2       O      0.966740000000     0.972240000000     0.117220000000    -0.287231   
O3       O      0.114910000000     0.025250000000     0.026790000000    -0.289903   
O4       O      0.023960000000     0.880320000000     0.968470000000    -0.28622    
O5       O      0.030910000000     0.026750000000     0.116180000000    -0.285051   
O6       O      0.970480000000     0.881060000000     0.033740000000    -0.285153   
O7       O      0.113790000000     0.965640000000     0.967340000000    -0.28562    
O8       O      0.969800000000     0.031590000000     0.882810000000    -0.285054   
O9       O      0.030880000000     0.114390000000     0.028020000000    -0.285236   
O10      O      0.023780000000     0.966970000000     0.881900000000    -0.286796   
O11      O      0.966190000000     0.115170000000     0.973960000000    -0.286643   
O12      O      0.881370000000     0.026460000000     0.969320000000    -0.287201   
O13      O      0.881620000000     0.966800000000     0.028760000000    -0.287899   
O14      O      0.997800000000     0.997750000000     0.499450000000    -0.365464   
O15      O      0.966640000000     0.026420000000     0.382770000000    -0.285966   
O16      O      0.114770000000     0.968900000000     0.471060000000    -0.289766   
O17      O      0.029010000000     0.115160000000     0.525840000000    -0.28664    
O18      O      0.029850000000     0.970680000000     0.382450000000    -0.285584   
O19      O      0.965620000000     0.114500000000     0.470260000000    -0.285806   
O20      O      0.114260000000     0.027180000000     0.531760000000    -0.287019   
O21      O      0.970820000000     0.965460000000     0.616270000000    -0.285726   
O22      O      0.029550000000     0.881050000000     0.469310000000    -0.284829   
O23      O      0.023610000000     0.031170000000     0.616240000000    -0.284873   
O24      O      0.967320000000     0.880220000000     0.526240000000    -0.286629   
O25      O      0.881300000000     0.967630000000     0.530820000000    -0.287595   
O26      O      0.880810000000     0.026300000000     0.470510000000    -0.289506   
O27      O      0.998010000000     0.497720000000     0.999890000000    -0.362607   
O28      O      0.028730000000     0.465390000000     0.883450000000    -0.283022   
O29      O      0.881550000000     0.530150000000     0.969580000000    -0.282934   
O30      O      0.965640000000     0.380110000000     0.026860000000    -0.286779   
O31      O      0.971410000000     0.527230000000     0.882200000000    -0.285304   
O32      O      0.030730000000     0.379980000000     0.973430000000    -0.285739   
O33      O      0.880600000000     0.468130000000     0.026840000000    -0.285384   
O34      O      0.024530000000     0.527210000000     0.117510000000    -0.285153   
O35      O      0.970890000000     0.615410000000     0.967760000000    -0.286215   
O36      O      0.967460000000     0.465200000000     0.116240000000    -0.28371    
O37      O      0.024450000000     0.615380000000     0.032820000000    -0.286078   
O38      O      0.114190000000     0.530200000000     0.030880000000    -0.283037   
O39      O      0.115650000000     0.468070000000     0.973760000000    -0.284513   
O40      O      0.998030000000     0.497580000000     0.499600000000    -0.362852   
O41      O      0.029490000000     0.380000000000     0.471420000000    -0.286544   
O42      O      0.971200000000     0.465580000000     0.616480000000    -0.283219   
O43      O      0.115540000000     0.528460000000     0.527220000000    -0.284705   
O44      O      0.966370000000     0.379820000000     0.527170000000    -0.286549   
O45      O      0.114980000000     0.467400000000     0.469040000000    -0.285044   
O46      O      0.027410000000     0.528550000000     0.616120000000    -0.282723   
O47      O      0.966650000000     0.615200000000     0.471170000000    -0.286541   
O48      O      0.880850000000     0.467100000000     0.529470000000    -0.284632   
O49      O      0.029610000000     0.615490000000     0.527130000000    -0.285738   
O50      O      0.880710000000     0.528110000000     0.471230000000    -0.285092   
O51      O      0.968640000000     0.528380000000     0.383120000000    -0.284172   
O52      O      0.024850000000     0.465470000000     0.382800000000    -0.283642   
O53      O      0.497920000000     0.997200000000     0.999480000000    -0.365143   
O54      O      0.381310000000     0.966240000000     0.969240000000    -0.289084   
O55      O      0.465910000000     0.025430000000     0.116440000000    -0.285696   
O56      O      0.526640000000     0.880650000000     0.029830000000    -0.287267   
O57      O      0.380500000000     0.026720000000     0.027660000000    -0.288141   
O58      O      0.469280000000     0.880950000000     0.968100000000    -0.287762   
O59      O      0.528840000000     0.969420000000     0.116790000000    -0.286405   
O60      O      0.615050000000     0.026920000000     0.970470000000    -0.288609   
O61      O      0.468140000000     0.113780000000     0.028950000000    -0.286702   
O62      O      0.614860000000     0.966390000000     0.028850000000    -0.288541   
O63      O      0.527600000000     0.113540000000     0.969230000000    -0.287174   
O64      O      0.529910000000     0.025520000000     0.882610000000    -0.287183   
O65      O      0.466990000000     0.969590000000     0.882230000000    -0.287916   
O66      O      0.497780000000     0.997690000000     0.499880000000    -0.365563   
O67      O      0.381060000000     0.027800000000     0.529810000000    -0.288951   
O68      O      0.466110000000     0.969700000000     0.382730000000    -0.286356   
O69      O      0.526980000000     0.114260000000     0.469970000000    -0.286879   
O70      O      0.380770000000     0.967330000000     0.471360000000    -0.288745   
O71      O      0.468530000000     0.113980000000     0.530670000000    -0.287565   
O72      O      0.528910000000     0.025840000000     0.382670000000    -0.285942   
O73      O      0.614540000000     0.967280000000     0.529220000000    -0.289367   
O74      O      0.468690000000     0.881090000000     0.469920000000    -0.286857   
O75      O      0.614760000000     0.027770000000     0.470780000000    -0.288248   
O76      O      0.526910000000     0.881410000000     0.530850000000    -0.287615   
O77      O      0.529560000000     0.969900000000     0.616960000000    -0.287877   
O78      O      0.466650000000     0.025830000000     0.617010000000    -0.28744    
O79      O      0.497960000000     0.497420000000     0.999770000000    -0.363098   
O80      O      0.380070000000     0.528920000000     0.974330000000    -0.285243   
O81      O      0.468990000000     0.380190000000     0.028440000000    -0.288579   
O82      O      0.529840000000     0.470670000000     0.882820000000    -0.284915   
O83      O      0.381070000000     0.466180000000     0.030640000000    -0.284243   
O84      O      0.464220000000     0.523630000000     0.883010000000    -0.284656   
O85      O      0.527820000000     0.380610000000     0.968230000000    -0.286215   
O86      O      0.615160000000     0.530080000000     0.028100000000    -0.284278   
O87      O      0.471090000000     0.465700000000     0.116850000000    -0.2852     
O88      O      0.615630000000     0.467060000000     0.972110000000    -0.285431   
O89      O      0.526930000000     0.528850000000     0.116480000000    -0.285263   
O90      O      0.526560000000     0.614570000000     0.028480000000    -0.289238   
O91      O      0.468230000000     0.614070000000     0.967820000000    -0.28658    
O92      O      0.497990000000     0.497680000000     0.499690000000    -0.363564   
O93      O      0.381340000000     0.529710000000     0.469210000000    -0.284557   
O94      O      0.467880000000     0.380960000000     0.531250000000    -0.286481   
O95      O      0.526730000000     0.465980000000     0.382980000000    -0.285319   
O96      O      0.380150000000     0.466900000000     0.525450000000    -0.285884   
O97      O      0.471000000000     0.529210000000     0.382530000000    -0.28529    
O98      O      0.526850000000     0.380460000000     0.471210000000    -0.288872   
O99      O      0.615450000000     0.528630000000     0.527030000000    -0.285882   
O100     O      0.464430000000     0.471120000000     0.616410000000    -0.284855   
O101     O      0.615090000000     0.465630000000     0.471000000000    -0.284604   
O102     O      0.530020000000     0.524110000000     0.616760000000    -0.285003   
O103     O      0.527500000000     0.614440000000     0.531700000000    -0.286491   
O104     O      0.469530000000     0.614880000000     0.470680000000    -0.28882    
Zn1      Zn     0.955530000000     0.955570000000     0.043550000000     0.449972   
Zn2      Zn     0.042200000000     0.039890000000     0.041430000000     0.451681   
Zn3      Zn     0.038790000000     0.953920000000     0.955610000000     0.450307   
Zn4      Zn     0.955150000000     0.041550000000     0.957580000000     0.45043    
Zn5      Zn     0.954100000000     0.040050000000     0.457000000000     0.451659   
Zn6      Zn     0.041520000000     0.955680000000     0.456720000000     0.450752   
Zn7      Zn     0.039940000000     0.041550000000     0.542090000000     0.450958   
Zn8      Zn     0.955630000000     0.953920000000     0.542010000000     0.449648   
Zn9      Zn     0.042010000000     0.454090000000     0.958640000000     0.448028   
Zn10     Zn     0.956520000000     0.541310000000     0.956060000000     0.447643   
Zn11     Zn     0.954190000000     0.454100000000     0.041260000000     0.448939   
Zn12     Zn     0.039260000000     0.541350000000     0.043860000000     0.449092   
Zn13     Zn     0.040680000000     0.453970000000     0.457000000000     0.449764   
Zn14     Zn     0.955270000000     0.453880000000     0.542100000000     0.447691   
Zn15     Zn     0.041370000000     0.541290000000     0.541470000000     0.447689   
Zn16     Zn     0.954780000000     0.541080000000     0.457530000000     0.449001   
Zn17     Zn     0.455240000000     0.954760000000     0.956120000000     0.452837   
Zn18     Zn     0.454360000000     0.039650000000     0.041960000000     0.44984    
Zn19     Zn     0.540770000000     0.954620000000     0.042590000000     0.45013    
Zn20     Zn     0.541320000000     0.039600000000     0.956820000000     0.452376   
Zn21     Zn     0.454840000000     0.040100000000     0.542980000000     0.453002   
Zn22     Zn     0.454650000000     0.955120000000     0.457110000000     0.450141   
Zn23     Zn     0.540830000000     0.040230000000     0.456990000000     0.450644   
Zn24     Zn     0.540820000000     0.955290000000     0.542900000000     0.452526   
Zn25     Zn     0.453820000000     0.539690000000     0.957380000000     0.449069   
Zn26     Zn     0.455870000000     0.453700000000     0.042650000000     0.449362   
Zn27     Zn     0.541640000000     0.455110000000     0.957030000000     0.448779   
Zn28     Zn     0.540530000000     0.541260000000     0.042040000000     0.449986   
Zn29     Zn     0.456100000000     0.541470000000     0.456740000000     0.450066   
Zn30     Zn     0.453830000000     0.455420000000     0.542010000000     0.449033   
Zn31     Zn     0.540530000000     0.453840000000     0.457420000000     0.450091   
Zn32     Zn     0.541530000000     0.539990000000     0.542570000000     0.449085   


