data_structure

_audit_creation_method RASPA-1.0
_audit_creation_date 2023-5-19
_audit_author_name 'Poobodin Mano'

_cell_length_a    21.7464
_cell_length_b    21.7576
_cell_length_c    21.8141
_cell_angle_alpha 90
_cell_angle_beta  90
_cell_angle_gamma 90
_cell_volume      10321.3

_symmetry_cell_setting          triclinic
_symmetry_space_group_name_Hall 'P 1'
_symmetry_space_group_name_H-M  'P 1'
_symmetry_Int_Tables_number     1

_symmetry_equiv_pos_as_xyz 'x,y,z'

loop_
_atom_site_label
_atom_site_type_symbol
_atom_site_fract_x
_atom_site_fract_y
_atom_site_fract_z
_atom_site_charge
C1       C      0.854030000000     0.040270000000     0.997190000000     0.380397   
C2       C      0.007840000000     0.027210000000     0.180300000000     0.389388   
C3       C      0.008790000000     0.858150000000     0.011750000000     0.3787     
C4       C      0.192210000000     0.020490000000     0.036340000000     0.382822   
C5       C      0.030920000000     0.199620000000     0.016480000000     0.382931   
C6       C      0.049080000000     0.030700000000     0.844380000000     0.37707    
C7       C      0.045550000000     0.005080000000     0.341000000000     0.390269   
C8       C      0.212220000000     0.019600000000     0.514130000000     0.381717   
C9       C      0.047410000000     0.190180000000     0.505410000000     0.37796    
C10      C      0.030360000000     0.008920000000     0.678450000000     0.377863   
C11      C      0.037880000000     0.850630000000     0.506760000000     0.388069   
C12      C      0.874730000000     0.039460000000     0.502740000000     0.386611   
C13      C      0.025220000000     0.358030000000     0.068120000000     0.38129    
C14      C      0.867490000000     0.538810000000     0.045220000000     0.378783   
C15      C      0.047020000000     0.545140000000     0.216450000000     0.37733    
C16      C      0.048200000000     0.696790000000     0.033010000000     0.376683   
C17      C      0.035040000000     0.510000000000     0.877830000000     0.377947   
C18      C      0.205880000000     0.509760000000     0.042290000000     0.382214   
C19      C      0.011640000000     0.524500000000     0.378050000000     0.377336   
C20      C      0.000050000000     0.690450000000     0.537140000000     0.389516   
C21      C      0.851600000000     0.495470000000     0.542950000000     0.378176   
C22      C      0.017860000000     0.538850000000     0.714390000000     0.376097   
C23      C      0.190050000000     0.537250000000     0.546580000000     0.38013    
C24      C      0.049260000000     0.352360000000     0.550770000000     0.377802   
C25      C      0.511990000000     0.021720000000     0.207130000000     0.378293   
C26      C      0.356350000000     0.056070000000     0.027710000000     0.38028    
C27      C      0.525730000000     0.218590000000     0.059430000000     0.380237   
C28      C      0.523630000000     0.059050000000     0.869140000000     0.390163   
C29      C      0.532360000000     0.881220000000     0.016410000000     0.383935   
C30      C      0.693050000000     0.061670000000     0.041030000000     0.379407   
C31      C      0.552640000000     0.196530000000     0.554060000000     0.385666   
C32      C      0.375340000000     0.043970000000     0.547930000000     0.379639   
C33      C      0.544080000000     0.035990000000     0.371770000000     0.379041   
C34      C      0.541280000000     0.857370000000     0.525730000000     0.377603   
C35      C      0.546470000000     0.012830000000     0.710320000000     0.38845    
C36      C      0.713060000000     0.023320000000     0.543540000000     0.387098   
C37      C      0.367350000000     0.551500000000     0.021090000000     0.381347   
C38      C      0.527140000000     0.380440000000     0.015820000000     0.380502   
C39      C      0.522210000000     0.567970000000     0.852350000000     0.384088   
C40      C      0.703450000000     0.528620000000     0.007390000000     0.378916   
C41      C      0.544520000000     0.547550000000     0.192500000000     0.381641   
C42      C      0.545550000000     0.717760000000     0.043090000000     0.383304   
C43      C      0.352590000000     0.498870000000     0.540240000000     0.379467   
C44      C      0.534450000000     0.529850000000     0.689620000000     0.381344   
C45      C      0.538400000000     0.356510000000     0.510500000000     0.385162   
C46      C      0.690140000000     0.534160000000     0.519870000000     0.379906   
C47      C      0.499940000000     0.695320000000     0.518960000000     0.378007   
C48      C      0.506610000000     0.529500000000     0.355220000000     0.377812   
H1       H      0.487700000000     0.607910000000     0.773010000000     0.126944   
H2       H      0.577630000000     0.500770000000     0.768330000000     0.128627   
H3       H      0.584420000000     0.576210000000     0.273610000000     0.127327   
H4       H      0.465500000000     0.502380000000     0.274120000000     0.127135   
H5       H      0.588240000000     0.775370000000     0.528260000000     0.123283   
H6       H      0.451590000000     0.775640000000     0.535160000000     0.121658   
H7       H      0.539810000000     0.277570000000     0.600700000000     0.125332   
H8       H      0.533740000000     0.274050000000     0.463590000000     0.123291   
H9       H      0.551920000000     0.807020000000     0.961910000000     0.120289   
H10      H      0.570210000000     0.794880000000     0.092950000000     0.118855   
H11      H      0.536910000000     0.298370000000     0.969860000000     0.12514    
H12      H      0.540420000000     0.299670000000     0.107470000000     0.123521   
H13      H      0.575750000000     0.977930000000     0.793540000000     0.127369   
H14      H      0.486620000000     0.086470000000     0.786670000000     0.128831   
H15      H      0.581790000000     0.071020000000     0.292730000000     0.128062   
H16      H      0.475020000000     0.980730000000     0.285010000000     0.126295   
H17      H      0.773530000000     0.444340000000     0.525340000000     0.123984   
H18      H      0.772530000000     0.579560000000     0.504930000000     0.122256   
H19      H      0.272300000000     0.448350000000     0.532540000000     0.120722   
H20      H      0.269570000000     0.584040000000     0.526060000000     0.122654   
H21      H      0.788740000000     0.581800000000     0.074760000000     0.128144   
H22      H      0.781880000000     0.486310000000     0.972820000000     0.125679   
H23      H      0.288240000000     0.473680000000     0.073360000000     0.127477   
H24      H      0.285080000000     0.583030000000     0.986070000000     0.128562   
H25      H      0.024890000000     0.455670000000     0.801550000000     0.121791   
H26      H      0.995230000000     0.586900000000     0.793220000000     0.118846   
H27      H      0.965650000000     0.507710000000     0.296470000000     0.119557   
H28      H      0.097020000000     0.545060000000     0.295830000000     0.123482   
H29      H      0.075080000000     0.767500000000     0.481560000000     0.129505   
H30      H      0.958960000000     0.773210000000     0.559920000000     0.127584   
H31      H      0.022340000000     0.271650000000     0.464230000000     0.127452   
H32      H      0.088540000000     0.273300000000     0.587060000000     0.125825   
H33      H      0.793900000000     0.986040000000     0.575210000000     0.128682   
H34      H      0.795300000000     0.084750000000     0.475940000000     0.127718   
H35      H      0.293790000000     0.987420000000     0.479010000000     0.128262   
H36      H      0.294550000000     0.081670000000     0.582210000000     0.125744   
H37      H      0.097200000000     0.775010000000     0.012870000000     0.12226    
H38      H      0.964200000000     0.776140000000     0.991900000000     0.118498   
H39      H      0.055480000000     0.283190000000     0.979240000000     0.121104   
H40      H      0.038060000000     0.275150000000     0.112640000000     0.121425   
H41      H      0.775650000000     0.095920000000     0.073570000000     0.127548   
H42      H      0.770860000000     0.014550000000     0.959550000000     0.127379   
H43      H      0.277110000000     0.099140000000     0.998340000000     0.127385   
H44      H      0.270450000000     0.981940000000     0.074360000000     0.127815   
H45      H      0.095460000000     0.062240000000     0.767640000000     0.126397   
H46      H      0.991140000000     0.969960000000     0.755570000000     0.126515   
H47      H      0.072430000000     0.962190000000     0.260880000000     0.129155   
H48      H      0.973630000000     0.061840000000     0.261310000000     0.128397   
N1       N      0.515580000000     0.572970000000     0.790690000000    -0.166583   
N2       N      0.544990000000     0.531450000000     0.750810000000    -0.166215   
N3       N      0.547100000000     0.552680000000     0.254490000000    -0.16629    
N4       N      0.501920000000     0.527330000000     0.293170000000    -0.165345   
N5       N      0.545480000000     0.795520000000     0.519100000000    -0.164286   
N6       N      0.493240000000     0.757370000000     0.519500000000    -0.164285   
N7       N      0.551170000000     0.258410000000     0.558140000000    -0.166382   
N8       N      0.544920000000     0.294950000000     0.505350000000    -0.166522   
N9       N      0.536770000000     0.820310000000     0.005510000000    -0.164029   
N10      N      0.547670000000     0.778940000000     0.053650000000    -0.165584   
N11      N      0.527470000000     0.318260000000     0.012540000000    -0.164853   
N12      N      0.528390000000     0.280620000000     0.065090000000    -0.165085   
N13      N      0.548770000000     0.011540000000     0.772270000000    -0.167754   
N14      N      0.517510000000     0.056130000000     0.807560000000    -0.168295   
N15      N      0.547730000000     0.041710000000     0.309870000000    -0.165814   
N16      N      0.508100000000     0.011490000000     0.268570000000    -0.165281   
N17      N      0.790110000000     0.488380000000     0.535320000000    -0.163885   
N18      N      0.752310000000     0.539200000000     0.521500000000    -0.165007   
N19      N      0.290880000000     0.491100000000     0.544360000000    -0.164175   
N20      N      0.252010000000     0.542910000000     0.543790000000    -0.164288   
N21      N      0.805820000000     0.548350000000     0.044770000000    -0.166026   
N22      N      0.765040000000     0.518020000000     0.004700000000    -0.165413   
N23      N      0.268140000000     0.506260000000     0.044320000000    -0.165998   
N24      N      0.305390000000     0.549800000000     0.014230000000    -0.165666   
N25      N      0.033630000000     0.500580000000     0.816440000000    -0.163321   
N26      N      0.018260000000     0.548410000000     0.775860000000    -0.163622   
N27      N      0.004130000000     0.528660000000     0.316340000000    -0.164404   
N28      N      0.052390000000     0.548790000000     0.278220000000    -0.163121   
N29      N      0.038730000000     0.788570000000     0.504960000000    -0.167724   
N30      N      0.994750000000     0.752390000000     0.535520000000    -0.167971   
N31      N      0.043500000000     0.252440000000     0.502840000000    -0.165548   
N32      N      0.062710000000     0.291280000000     0.550790000000    -0.16536    
N33      N      0.774970000000     0.018100000000     0.544810000000    -0.167665   
N34      N      0.813530000000     0.050770000000     0.504590000000    -0.167344   
N35      N      0.274450000000     0.017170000000     0.511420000000    -0.166717   
N36      N      0.313320000000     0.051020000000     0.550350000000    -0.165979   
N37      N      0.053910000000     0.758450000000     0.025810000000    -0.162872   
N38      N      0.002820000000     0.796020000000     0.012530000000    -0.163753   
N39      N      0.034410000000     0.261720000000     0.016710000000    -0.164826   
N40      N      0.026340000000     0.295900000000     0.070970000000    -0.164353   
N41      N      0.755060000000     0.068950000000     0.039590000000    -0.165604   
N42      N      0.791690000000     0.040240000000     0.994370000000    -0.166117   
N43      N      0.294480000000     0.061050000000     0.021980000000    -0.165639   
N44      N      0.253660000000     0.017340000000     0.046550000000    -0.166543   
N45      N      0.059900000000     0.033760000000     0.783010000000    -0.165204   
N46      N      0.024150000000     0.001290000000     0.740040000000    -0.165299   
N47      N      0.043570000000     0.995660000000     0.279840000000    -0.168388   
N48      N      0.004240000000     0.030170000000     0.242000000000    -0.168055   
O1       O      0.023300000000     0.028690000000     0.012350000000    -0.366887   
O2       O      0.884100000000     0.006600000000     0.959860000000    -0.293277   
O3       O      0.976210000000     0.064830000000     0.149120000000    -0.302247   
O4       O      0.047780000000     0.883410000000     0.047200000000    -0.287725   
O5       O      0.881210000000     0.071650000000     0.038320000000    -0.291635   
O6       O      0.975760000000     0.890030000000     0.975210000000    -0.291957   
O7       O      0.043970000000     0.988840000000     0.154850000000    -0.294601   
O8       O      0.170160000000     0.061940000000     0.001220000000    -0.291798   
O9       O      0.994220000000     0.172490000000     0.052930000000    -0.28899    
O10      O      0.157570000000     0.981520000000     0.062470000000    -0.298029   
O11      O      0.064910000000     0.169580000000     0.979600000000    -0.29721    
O12      O      0.082640000000     0.062870000000     0.879710000000    -0.295715   
O13      O      0.005450000000     0.997310000000     0.865620000000    -0.286483   
O14      O      0.042900000000     0.020630000000     0.510100000000    -0.370953   
O15      O      0.011350000000     0.045730000000     0.365360000000    -0.298219   
O16      O      0.182640000000     0.985020000000     0.477820000000    -0.301871   
O17      O      0.072710000000     0.163130000000     0.551140000000    -0.285421   
O18      O      0.081430000000     0.972400000000     0.373090000000    -0.302122   
O19      O      0.022920000000     0.159840000000     0.462020000000    -0.297473   
O20      O      0.184510000000     0.055040000000     0.552060000000    -0.287084   
O21      O      0.996120000000     0.976980000000     0.643580000000    -0.297144   
O22      O      0.081770000000     0.879360000000     0.481470000000    -0.302409   
O23      O      0.069160000000     0.047400000000     0.656430000000    -0.285283   
O24      O      0.994060000000     0.879040000000     0.533270000000    -0.294635   
O25      O      0.897620000000     0.997590000000     0.536600000000    -0.296039   
O26      O      0.908340000000     0.071720000000     0.467730000000    -0.298881   
O27      O      0.036790000000     0.527160000000     0.047200000000    -0.367443   
O28      O      0.056380000000     0.388950000000     0.106750000000    -0.294961   
O29      O      0.892210000000     0.497800000000     0.011110000000    -0.286777   
O30      O      0.003560000000     0.573120000000     0.188550000000    -0.282063   
O31      O      0.997250000000     0.383990000000     0.023940000000    -0.289811   
O32      O      0.085220000000     0.511780000000     0.187690000000    -0.297164   
O33      O      0.899770000000     0.572790000000     0.080000000000    -0.297897   
O34      O      0.086040000000     0.662090000000     0.005090000000    -0.294934   
O35      O      0.004790000000     0.473550000000     0.911820000000    -0.297965   
O36      O      0.006050000000     0.674650000000     0.067340000000    -0.280859   
O37      O      0.066680000000     0.553990000000     0.900460000000    -0.282881   
O38      O      0.179720000000     0.547830000000     0.006210000000    -0.290304   
O39      O      0.174840000000     0.476870000000     0.079180000000    -0.296191   
O40      O      0.020330000000     0.521280000000     0.546800000000    -0.368203   
O41      O      0.977910000000     0.487380000000     0.408390000000    -0.294047   
O42      O      0.042730000000     0.664160000000     0.507140000000    -0.296132   
O43      O      0.872460000000     0.544100000000     0.568140000000    -0.287052   
O44      O      0.052070000000     0.557680000000     0.404510000000    -0.288456   
O45      O      0.887520000000     0.454620000000     0.521380000000    -0.293849   
O46      O      0.962920000000     0.659770000000     0.569810000000    -0.298952   
O47      O      0.056270000000     0.501210000000     0.690750000000    -0.283722   
O48      O      0.157380000000     0.572410000000     0.513280000000    -0.29743    
O49      O      0.978960000000     0.567990000000     0.681570000000    -0.292797   
O50      O      0.165710000000     0.497120000000     0.581620000000    -0.285004   
O51      O      0.070740000000     0.385850000000     0.593490000000    -0.29439    
O52      O      0.015930000000     0.375340000000     0.508260000000    -0.289645   
O53      O      0.524110000000     0.049100000000     0.039270000000    -0.36949    
O54      O      0.551640000000     0.059690000000     0.186340000000    -0.290566   
O55      O      0.380200000000     0.009730000000     0.054960000000    -0.287408   
O56      O      0.502920000000     0.195250000000     0.010970000000    -0.291863   
O57      O      0.475670000000     0.993180000000     0.171240000000    -0.292151   
O58      O      0.547630000000     0.184800000000     0.101890000000    -0.292958   
O59      O      0.389450000000     0.098210000000     0.004410000000    -0.296632   
O60      O      0.561630000000     0.023980000000     0.895800000000    -0.300209   
O61      O      0.493270000000     0.901510000000     0.055090000000    -0.284179   
O62      O      0.489630000000     0.095520000000     0.899460000000    -0.299126   
O63      O      0.566900000000     0.917040000000     0.986160000000    -0.302749   
O64      O      0.667010000000     0.028860000000     0.000230000000    -0.294747   
O65      O      0.661970000000     0.088190000000     0.083130000000    -0.293047   
O66      O      0.543840000000     0.026940000000     0.540900000000    -0.370509   
O67      O      0.578420000000     0.170620000000     0.508440000000    -0.291295   
O68      O      0.408580000000     0.074970000000     0.584580000000    -0.296955   
O69      O      0.503880000000     0.001120000000     0.396880000000    -0.284997   
O70      O      0.525560000000     0.165580000000     0.595200000000    -0.301535   
O71      O      0.581750000000     0.066980000000     0.403810000000    -0.298225   
O72      O      0.399190000000     0.006430000000     0.509530000000    -0.290942   
O73      O      0.582850000000     0.884430000000     0.556520000000    -0.297616   
O74      O      0.514760000000     0.054110000000     0.684290000000    -0.301468   
O75      O      0.497120000000     0.887280000000     0.501040000000    -0.283748   
O76      O      0.577880000000     0.974450000000     0.679290000000    -0.29683    
O77      O      0.682060000000     0.987240000000     0.577070000000    -0.301884   
O78      O      0.687020000000     0.062110000000     0.508190000000    -0.29201    
O79      O      0.535540000000     0.549670000000     0.022120000000    -0.369086   
O80      O      0.397030000000     0.593120000000     0.992730000000    -0.295602   
O81      O      0.506340000000     0.407580000000     0.063400000000    -0.287319   
O82      O      0.554210000000     0.524350000000     0.874750000000    -0.294002   
O83      O      0.394740000000     0.511510000000     0.054260000000    -0.288698   
O84      O      0.494900000000     0.606160000000     0.886920000000    -0.296471   
O85      O      0.548370000000     0.410540000000     0.970510000000    -0.296568   
O86      O      0.682200000000     0.566630000000     0.046660000000    -0.292866   
O87      O      0.499700000000     0.519940000000     0.166490000000    -0.289417   
O88      O      0.667820000000     0.499170000000     0.971470000000    -0.294746   
O89      O      0.587180000000     0.572030000000     0.161210000000    -0.29776    
O90      O      0.582480000000     0.682680000000     0.071780000000    -0.297701   
O91      O      0.507060000000     0.696690000000     0.004450000000    -0.288562   
O92      O      0.519880000000     0.525950000000     0.522530000000    -0.370981   
O93      O      0.383900000000     0.462380000000     0.506820000000    -0.294131   
O94      O      0.494020000000     0.564780000000     0.665020000000    -0.287572   
O95      O      0.560550000000     0.384080000000     0.556880000000    -0.294104   
O96      O      0.377410000000     0.544830000000     0.566590000000    -0.288674   
O97      O      0.508290000000     0.385390000000     0.469820000000    -0.298757   
O98      O      0.566300000000     0.492700000000     0.657840000000    -0.299144   
O99      O      0.658830000000     0.574020000000     0.490400000000    -0.293443   
O100     O      0.463860000000     0.662810000000     0.551440000000    -0.294546   
O101     O      0.664090000000     0.490520000000     0.548720000000    -0.289399   
O102     O      0.543840000000     0.670950000000     0.488630000000    -0.286451   
O103     O      0.549330000000     0.560910000000     0.380890000000    -0.287421   
O104     O      0.468830000000     0.497800000000     0.386570000000    -0.295957   
Zn1      Zn     0.973780000000     0.981850000000     0.953580000000     0.451247   
Zn2      Zn     0.970220000000     0.083100000000     0.060680000000     0.464847   
Zn3      Zn     0.066470000000     0.971780000000     0.066970000000     0.463642   
Zn4      Zn     0.083780000000     0.079290000000     0.969860000000     0.459878   
Zn5      Zn     0.998840000000     0.072420000000     0.452300000000     0.467807   
Zn6      Zn     0.095590000000     0.966940000000     0.462680000000     0.476379   
Zn7      Zn     0.091680000000     0.071090000000     0.567200000000     0.445324   
Zn8      Zn     0.983920000000     0.969330000000     0.553350000000     0.463523   
Zn9      Zn     0.085960000000     0.477320000000     0.103040000000     0.463239   
Zn10     Zn     0.983040000000     0.472330000000     0.000720000000     0.458137   
Zn11     Zn     0.988740000000     0.585780000000     0.095670000000     0.454737   
Zn12     Zn     0.090710000000     0.571170000000     0.990460000000     0.455313   
Zn13     Zn     0.977260000000     0.460340000000     0.497790000000     0.454823   
Zn14     Zn     0.067300000000     0.576440000000     0.494270000000     0.462668   
Zn15     Zn     0.959430000000     0.570660000000     0.590690000000     0.460692   
Zn16     Zn     0.076180000000     0.477730000000     0.602540000000     0.456748   
Zn17     Zn     0.570130000000     0.093860000000     0.101760000000     0.45526    
Zn18     Zn     0.469060000000     0.989410000000     0.078660000000     0.455175   
Zn19     Zn     0.479170000000     0.108540000000     0.990090000000     0.465072   
Zn20     Zn     0.579220000000     0.006950000000     0.983130000000     0.468874   
Zn21     Zn     0.596730000000     0.080570000000     0.492430000000     0.462238   
Zn22     Zn     0.499530000000     0.078260000000     0.598830000000     0.470538   
Zn23     Zn     0.486780000000     0.980890000000     0.488130000000     0.448514   
Zn24     Zn     0.593790000000     0.969880000000     0.587810000000     0.468257   
Zn25     Zn     0.485990000000     0.610530000000     0.978420000000     0.464946   
Zn26     Zn     0.485160000000     0.498340000000     0.076190000000     0.452527   
Zn27     Zn     0.575200000000     0.498090000000     0.960890000000     0.461143   
Zn28     Zn     0.596300000000     0.591240000000     0.072470000000     0.463675   
Zn29     Zn     0.471020000000     0.469880000000     0.473590000000     0.462464   
Zn30     Zn     0.465190000000     0.573280000000     0.575600000000     0.457982   
Zn31     Zn     0.575330000000     0.474180000000     0.569480000000     0.4665     
Zn32     Zn     0.567400000000     0.581760000000     0.471260000000     0.453689   


