data_structure

_audit_creation_method RASPA-1.0
_audit_creation_date 2023-5-19
_audit_author_name 'Poobodin Mano'

_cell_length_a    22.2346
_cell_length_b    21.9422
_cell_length_c    22.7476
_cell_angle_alpha 90
_cell_angle_beta  90
_cell_angle_gamma 90
_cell_volume      11098

_symmetry_cell_setting          triclinic
_symmetry_space_group_name_Hall 'P 1'
_symmetry_space_group_name_H-M  'P 1'
_symmetry_Int_Tables_number     1

_symmetry_equiv_pos_as_xyz 'x,y,z'

loop_
_atom_site_label
_atom_site_type_symbol
_atom_site_fract_x
_atom_site_fract_y
_atom_site_fract_z
_atom_site_charge
C1       C      0.062990000000     0.083400000000     0.219320000000     0.383253   
C2       C      0.216600000000     0.021720000000     0.067220000000     0.38359    
C3       C      0.012700000000     0.894970000000     0.076210000000     0.382202   
C4       C      0.043730000000     0.023260000000     0.899680000000     0.384814   
C5       C      0.091860000000     0.216460000000     0.017860000000     0.3813     
C6       C      0.893310000000     0.099140000000     0.067610000000     0.383995   
C7       C      0.129250000000     0.085070000000     0.406700000000     0.384544   
C8       C      0.223620000000     0.103620000000     0.618980000000     0.38172    
C9       C      0.045940000000     0.224640000000     0.584190000000     0.384254   
C10      C      0.009370000000     0.016320000000     0.700330000000     0.38362    
C11      C      0.118120000000     0.899960000000     0.541760000000     0.37873    
C12      C      0.922340000000     0.050340000000     0.498640000000     0.384267   
C13      C      0.101740000000     0.399940000000     0.086690000000     0.383077   
C14      C      0.113430000000     0.539120000000     0.259440000000     0.385079   
C15      C      0.199430000000     0.627960000000     0.065650000000     0.385648   
C16      C      0.001410000000     0.714950000000     0.146860000000     0.382846   
C17      C      0.901570000000     0.505180000000     0.131340000000     0.378977   
C18      C      0.024760000000     0.581950000000     0.948310000000     0.381773   
C19      C      0.089780000000     0.498430000000     0.437190000000     0.385127   
C20      C      0.173780000000     0.705490000000     0.539180000000     0.379114   
C21      C      0.954640000000     0.648910000000     0.549580000000     0.385368   
C22      C      0.072600000000     0.606730000000     0.739900000000     0.379886   
C23      C      0.245580000000     0.502010000000     0.615310000000     0.378884   
C24      C      0.016570000000     0.422780000000     0.628130000000     0.381891   
C25      C      0.496340000000     0.132270000000     0.152940000000     0.380719   
C26      C      0.394590000000     0.019840000000     0.994090000000     0.383224   
C27      C      0.508830000000     0.231610000000     0.938640000000     0.383901   
C28      C      0.580880000000     0.045210000000     0.849950000000     0.380657   
C29      C      0.611410000000     0.938120000000     0.049130000000     0.37907    
C30      C      0.694840000000     0.153240000000     0.039090000000     0.383139   
C31      C      0.409150000000     0.106860000000     0.543990000000     0.381323   
C32      C      0.539100000000     0.122490000000     0.351770000000     0.383962   
C33      C      0.607290000000     0.254230000000     0.512420000000     0.379667   
C34      C      0.718810000000     0.036970000000     0.468940000000     0.382458   
C35      C      0.527780000000     0.931670000000     0.508080000000     0.383624   
C36      C      0.607550000000     0.100260000000     0.665870000000     0.380203   
C37      C      0.380740000000     0.579840000000     0.030800000000     0.38983    
C38      C      0.528020000000     0.415140000000     0.012370000000     0.383319   
C39      C      0.582320000000     0.608830000000     0.902610000000     0.38354    
C40      C      0.700490000000     0.551830000000     0.100870000000     0.380173   
C41      C      0.507390000000     0.558490000000     0.213350000000     0.382412   
C42      C      0.553090000000     0.744740000000     0.069650000000     0.382678   
C43      C      0.513480000000     0.730270000000     0.558290000000     0.389946   
C44      C      0.574030000000     0.576020000000     0.402710000000     0.383148   
C45      C      0.746540000000     0.661200000000     0.521050000000     0.382883   
C46      C      0.670880000000     0.436440000000     0.568360000000     0.381041   
C47      C      0.461950000000     0.509210000000     0.605290000000     0.379891   
C48      C      0.646700000000     0.626410000000     0.712750000000     0.384122   
C49      C      0.653740000000     0.603580000000     0.819400000000     0.0761101  
C50      C      0.509090000000     0.596760000000     0.316090000000     0.0758428  
C51      C      0.503810000000     0.842170000000     0.568870000000     0.0747045  
C52      C      0.682510000000     0.338380000000     0.517070000000     0.0713708  
C53      C      0.604320000000     0.839960000000     0.103270000000     0.0749087  
C54      C      0.534570000000     0.340950000000     0.930480000000     0.0778282  
C55      C      0.643280000000     0.054900000000     0.759980000000     0.0712819  
C56      C      0.478330000000     0.116080000000     0.259890000000     0.0736143  
C57      C      0.856190000000     0.655640000000     0.497960000000     0.0723051  
C58      C      0.353400000000     0.486990000000     0.589400000000     0.0704966  
C59      C      0.796440000000     0.494750000000     0.094850000000     0.0754329  
C60      C      0.286790000000     0.631310000000     0.999050000000     0.0787743  
C61      C      0.057080000000     0.575000000000     0.843730000000     0.0718423  
C62      C      0.137590000000     0.469970000000     0.342620000000     0.0814945  
C63      C      0.194420000000     0.817100000000     0.547060000000     0.0767078  
C64      C      0.023410000000     0.312750000000     0.649290000000     0.0731092  
C65      C      0.822550000000     0.000350000000     0.484690000000     0.0725879  
C66      C      0.323280000000     0.151950000000     0.598940000000     0.0770334  
C67      C      0.951090000000     0.811090000000     0.119800000000     0.0745682  
C68      C      0.148350000000     0.313230000000     0.031750000000     0.0761836  
C69      C      0.806310000000     0.157490000000     0.030500000000     0.0755388  
C70      C      0.308200000000     0.964260000000     0.037830000000     0.0758955  
C71      C      0.989300000000     0.034930000000     0.806080000000     0.0770067  
C72      C      0.114600000000     0.127600000000     0.306650000000     0.0752493  
H1       H      0.567670000000     0.650040000000     0.822070000000     0.118283   
H2       H      0.685010000000     0.683930000000     0.774560000000     0.113053   
H3       H      0.691730000000     0.609090000000     0.850760000000     0.0368471  
H4       H      0.650580000000     0.554440000000     0.807820000000     0.0453147  
H5       H      0.464750000000     0.516240000000     0.283490000000     0.114644   
H6       H      0.601510000000     0.566530000000     0.316050000000     0.120121   
H7       H      0.515510000000     0.643120000000     0.297390000000     0.040219   
H8       H      0.471890000000     0.600200000000     0.348550000000     0.0399945  
H9       H      0.433870000000     0.777970000000     0.547620000000     0.110325   
H10      H      0.476580000000     0.859310000000     0.479060000000     0.115103   
H11      H      0.474410000000     0.866810000000     0.600440000000     0.0327425  
H12      H      0.549850000000     0.840640000000     0.587960000000     0.0518908  
H13      H      0.691640000000     0.355150000000     0.609300000000     0.113132   
H14      H      0.586600000000     0.344210000000     0.529020000000     0.116211   
H15      H      0.690700000000     0.364050000000     0.475710000000     0.0445591  
H16      H      0.716240000000     0.301050000000     0.519530000000     0.0394957  
H17      H      0.674190000000     0.868370000000     0.043300000000     0.112956   
H18      H      0.530220000000     0.831750000000     0.042760000000     0.120443   
H19      H      0.638430000000     0.808690000000     0.122450000000     0.0387993  
H20      H      0.582410000000     0.864310000000     0.140380000000     0.0413686  
H21      H      0.479800000000     0.334680000000     0.009380000000     0.123723   
H22      H      0.476470000000     0.288510000000     0.872800000000     0.110387   
H23      H      0.527040000000     0.377890000000     0.897810000000     0.0332754  
H24      H      0.583700000000     0.331680000000     0.932650000000     0.0419462  
H25      H      0.613810000000     0.146940000000     0.744800000000     0.11336    
H26      H      0.554030000000     0.019450000000     0.766710000000     0.117062   
H27      H      0.662280000000     0.017280000000     0.733070000000     0.0428329  
H28      H      0.679400000000     0.070390000000     0.790300000000     0.0392386  
H29      H      0.466170000000     0.198390000000     0.210540000000     0.112905   
H30      H      0.561010000000     0.165870000000     0.274280000000     0.117111   
H31      H      0.435880000000     0.122720000000     0.284900000000     0.0372801  
H32      H      0.483580000000     0.066610000000     0.250660000000     0.0462229  
H33      H      0.803240000000     0.735590000000     0.517020000000     0.112839   
H34      H      0.905060000000     0.728130000000     0.542040000000     0.113062   
H35      H      0.850990000000     0.606190000000     0.507560000000     0.0530862  
H36      H      0.866530000000     0.661070000000     0.450490000000     0.0360455  
H37      H      0.307440000000     0.459390000000     0.669310000000     0.111297   
H38      H      0.411260000000     0.453420000000     0.659450000000     0.110166   
H39      H      0.351030000000     0.449840000000     0.556320000000     0.036543   
H40      H      0.351570000000     0.531540000000     0.566060000000     0.0516509  
H41      H      0.838060000000     0.446390000000     0.166820000000     0.11215    
H42      H      0.772220000000     0.564700000000     0.157740000000     0.118677   
H43      H      0.813610000000     0.512510000000     0.052240000000     0.0444441  
H44      H      0.771000000000     0.452220000000     0.085410000000     0.0358335  
H45      H      0.295860000000     0.542860000000     0.039310000000     0.123804   
H46      H      0.263700000000     0.696800000000     0.066500000000     0.114189   
H47      H      0.316900000000     0.667430000000     0.981520000000     0.038521   
H48      H      0.258250000000     0.615630000000     0.961870000000     0.0380309  
H49      H      0.047080000000     0.665530000000     0.806630000000     0.113473   
H50      H      0.977000000000     0.618260000000     0.878410000000     0.113124   
H51      H      0.041810000000     0.530000000000     0.826930000000     0.0427979  
H52      H      0.103710000000     0.570230000000     0.860800000000     0.0443972  
H53      H      0.046230000000     0.452830000000     0.369490000000     0.11891    
H54      H      0.172000000000     0.560470000000     0.327450000000     0.119357   
H55      H      0.180210000000     0.461110000000     0.366760000000     0.0340911  
H56      H      0.131670000000     0.431450000000     0.311360000000     0.0344371  
H57      H      0.097680000000     0.808360000000     0.540190000000     0.125745   
H58      H      0.229420000000     0.753920000000     0.482830000000     0.111671   
H59      H      0.227260000000     0.849030000000     0.526760000000     0.0364512  
H60      H      0.204850000000     0.813970000000     0.594760000000     0.0377946  
H61      H      0.943800000000     0.364240000000     0.630160000000     0.112793   
H62      H      0.027780000000     0.311380000000     0.554220000000     0.11737    
H63      H      0.067240000000     0.321470000000     0.671260000000     0.0457855  
H64      H      0.996730000000     0.281710000000     0.677820000000     0.0376712  
H65      H      0.848770000000     0.092280000000     0.461610000000     0.116635   
H66      H      0.780770000000     0.022360000000     0.403300000000     0.112624   
H67      H      0.844530000000     0.957950000000     0.468770000000     0.038686   
H68      H      0.809070000000     0.993760000000     0.531350000000     0.0443018  
H69      H      0.279400000000     0.140320000000     0.681950000000     0.11153    
H70      H      0.322220000000     0.075820000000     0.537990000000     0.129443   
H71      H      0.302850000000     0.188200000000     0.571270000000     0.0317089  
H72      H      0.358210000000     0.174090000000     0.626660000000     0.0380402  
H73      H      0.004620000000     0.793960000000     0.196430000000     0.115828   
H74      H      0.014450000000     0.805100000000     0.048440000000     0.117517   
H75      H      0.916010000000     0.784710000000     0.096040000000     0.0395898  
H76      H      0.927490000000     0.847730000000     0.144420000000     0.0399621  
H77      H      0.102490000000     0.310250000000     0.114730000000     0.12013    
H78      H      0.083330000000     0.292620000000     0.964390000000     0.114452   
H79      H      0.165940000000     0.348710000000     0.001410000000     0.0382377  
H80      H      0.187690000000     0.286640000000     0.047610000000     0.0386828  
H81      H      0.749260000000     0.214340000000     0.083960000000     0.112147   
H82      H      0.808970000000     0.097610000000     0.106470000000     0.118012   
H83      H      0.800750000000     0.134090000000     0.987470000000     0.0454219  
H84      H      0.835520000000     0.197940000000     0.023190000000     0.0364948  
H85      H      0.312240000000     0.007380000000     0.952980000000     0.117005   
H86      H      0.301890000000     0.036850000000     0.100900000000     0.116992   
H87      H      0.277210000000     0.929380000000     0.019440000000     0.0393363  
H88      H      0.341180000000     0.939400000000     0.065650000000     0.0389953  
H89      H      0.955680000000     0.961170000000     0.752650000000     0.11285    
H90      H      0.065300000000     0.975380000000     0.823910000000     0.118921   
H91      H      0.999770000000     0.083630000000     0.797140000000     0.0462761  
H92      H      0.945790000000     0.033470000000     0.830190000000     0.0360336  
H93      H      0.184250000000     0.065760000000     0.335340000000     0.114093   
H94      H      0.037940000000     0.067220000000     0.305730000000     0.119251   
H95      H      0.093240000000     0.167870000000     0.327720000000     0.0407366  
H96      H      0.147560000000     0.145530000000     0.274240000000     0.0392316  
N1       N      0.665900000000     0.640980000000     0.767570000000    -0.215925   
N2       N      0.597670000000     0.623710000000     0.846810000000    -0.214256   
N3       N      0.565210000000     0.576560000000     0.343640000000    -0.213205   
N4       N      0.491070000000     0.553420000000     0.270600000000    -0.214432   
N5       N      0.504350000000     0.875030000000     0.512990000000    -0.21386    
N6       N      0.479180000000     0.781190000000     0.559620000000    -0.216575   
N7       N      0.621090000000     0.314200000000     0.517090000000    -0.213325   
N8       N      0.689430000000     0.377540000000     0.568760000000    -0.213513   
N9       N      0.558820000000     0.806370000000     0.069850000000    -0.213023   
N10      N      0.634910000000     0.883110000000     0.064200000000    -0.213537   
N11      N      0.502530000000     0.286010000000     0.910980000000    -0.21632    
N12      N      0.512800000000     0.360700000000     0.988260000000    -0.210738   
N13      N      0.590890000000     0.032560000000     0.792360000000    -0.212673   
N14      N      0.624190000000     0.106250000000     0.723110000000    -0.213386   
N15      N      0.529290000000     0.137770000000     0.294840000000    -0.214734   
N16      N      0.475170000000     0.151870000000     0.205640000000    -0.214925   
N17      N      0.905660000000     0.681420000000     0.532820000000    -0.213808   
N18      N      0.800520000000     0.688330000000     0.511500000000    -0.213268   
N19      N      0.410090000000     0.481590000000     0.622370000000    -0.212827   
N20      N      0.301740000000     0.482170000000     0.629300000000    -0.21267    
N21      N      0.756460000000     0.539690000000     0.121720000000    -0.21276    
N22      N      0.845920000000     0.479890000000     0.135030000000    -0.214584   
N23      N      0.249360000000     0.656830000000     0.045750000000    -0.2154     
N24      N      0.320480000000     0.579600000000     0.022640000000    -0.215331   
N25      N      0.015810000000     0.594370000000     0.890470000000    -0.215013   
N26      N      0.057510000000     0.620290000000     0.796260000000    -0.214077   
N27      N      0.142230000000     0.527780000000     0.310930000000    -0.213158   
N28      N      0.086990000000     0.471720000000     0.383450000000    -0.213536   
N29      N      0.201440000000     0.756960000000     0.519660000000    -0.2138     
N30      N      0.132920000000     0.839900000000     0.539380000000    -0.211708   
N31      N      0.033390000000     0.284490000000     0.591840000000    -0.21497    
N32      N      0.989320000000     0.369100000000     0.640780000000    -0.214705   
N33      N      0.770610000000     0.013370000000     0.447380000000    -0.214425   
N34      N      0.864540000000     0.051560000000     0.480020000000    -0.216027   
N35      N      0.350430000000     0.105690000000     0.560640000000    -0.212685   
N36      N      0.277120000000     0.126290000000     0.638050000000    -0.212638   
N37      N      0.994230000000     0.835960000000     0.077390000000    -0.212646   
N38      N      0.983410000000     0.772150000000     0.161190000000    -0.21327    
N39      N      0.106630000000     0.273640000000     0.999880000000    -0.213309   
N40      N      0.117210000000     0.340240000000     0.082000000000    -0.213471   
N41      N      0.834920000000     0.116240000000     0.072570000000    -0.214      
N42      N      0.748520000000     0.178550000000     0.053600000000    -0.215793   
N43      N      0.275930000000     0.008740000000     0.073780000000    -0.213802   
N44      N      0.338270000000     0.996290000000     0.989750000000    -0.213493   
N45      N      0.036720000000     0.008090000000     0.842340000000    -0.214231   
N46      N      0.982480000000     0.000330000000     0.751540000000    -0.216107   
N47      N      0.068140000000     0.090340000000     0.278430000000    -0.21315    
N48      N      0.147150000000     0.090830000000     0.349940000000    -0.214988   
O1       O      0.054120000000     0.057170000000     0.058700000000    -0.368773   
O2       O      0.023870000000     0.046380000000     0.199320000000    -0.302637   
O3       O      0.195620000000     0.068750000000     0.092720000000    -0.30417    
O4       O      0.054460000000     0.909990000000     0.040690000000    -0.301822   
O5       O      0.097710000000     0.112920000000     0.185000000000    -0.304569   
O6       O      0.987360000000     0.934400000000     0.109060000000    -0.301486   
O7       O      0.182980000000     0.987100000000     0.036360000000    -0.301438   
O8       O      0.010750000000     0.064640000000     0.922150000000    -0.304742   
O9       O      0.118940000000     0.192270000000     0.061530000000    -0.302068   
O10      O      0.082180000000     0.994460000000     0.930410000000    -0.302495   
O11      O      0.050710000000     0.187950000000     0.990280000000    -0.302714   
O12      O      0.925150000000     0.119590000000     0.025400000000    -0.304101   
O13      O      0.915180000000     0.062750000000     0.105580000000    -0.30297    
O14      O      0.075720000000     0.061450000000     0.558650000000    -0.372686   
O15      O      0.083120000000     0.113910000000     0.424690000000    -0.306174   
O16      O      0.219630000000     0.079010000000     0.568400000000    -0.30498    
O17      O      0.058060000000     0.190930000000     0.628280000000    -0.302467   
O18      O      0.159480000000     0.051130000000     0.441220000000    -0.303662   
O19      O      0.043770000000     0.203060000000     0.532360000000    -0.306142   
O20      O      0.177560000000     0.109180000000     0.651980000000    -0.301116   
O21      O      0.998030000000     0.985310000000     0.654360000000    -0.302358   
O22      O      0.159060000000     0.940880000000     0.539500000000    -0.299379   
O23      O      0.043960000000     0.062590000000     0.698680000000    -0.302332   
O24      O      0.062740000000     0.914100000000     0.546930000000    -0.300995   
O25      O      0.943110000000     0.003570000000     0.524940000000    -0.301972   
O26      O      0.954720000000     0.097230000000     0.489680000000    -0.30684    
O27      O      0.055460000000     0.560650000000     0.107540000000    -0.370372   
O28      O      0.120960000000     0.439110000000     0.049630000000    -0.301205   
O29      O      0.074170000000     0.501770000000     0.240030000000    -0.301058   
O30      O      0.170070000000     0.651320000000     0.108080000000    -0.303342   
O31      O      0.068100000000     0.415620000000     0.129280000000    -0.304713   
O32      O      0.182440000000     0.578650000000     0.041010000000    -0.306854   
O33      O      0.128290000000     0.586130000000     0.230120000000    -0.303574   
O34      O      0.974430000000     0.685500000000     0.106240000000    -0.301911   
O35      O      0.943790000000     0.483280000000     0.163020000000    -0.300168   
O36      O      0.047190000000     0.692980000000     0.172720000000    -0.303809   
O37      O      0.911220000000     0.548300000000     0.094850000000    -0.30096    
O38      O      0.988980000000     0.604740000000     0.986090000000    -0.302606   
O39      O      0.069410000000     0.549490000000     0.964080000000    -0.30308    
O40      O      0.094320000000     0.565320000000     0.585040000000    -0.370709   
O41      O      0.043090000000     0.497290000000     0.469540000000    -0.304337   
O42      O      0.183610000000     0.655400000000     0.512290000000    -0.300386   
O43      O      0.996200000000     0.675480000000     0.578420000000    -0.302514   
O44      O      0.138370000000     0.523980000000     0.454330000000    -0.301107   
O45      O      0.958520000000     0.592840000000     0.536110000000    -0.303447   
O46      O      0.137860000000     0.708090000000     0.582900000000    -0.300993   
O47      O      0.089140000000     0.552760000000     0.726670000000    -0.302193   
O48      O      0.235730000000     0.527520000000     0.565740000000    -0.2996     
O49      O      0.068320000000     0.648290000000     0.700880000000    -0.300731   
O50      O      0.203480000000     0.494790000000     0.652660000000    -0.302034   
O51      O      0.070240000000     0.432560000000     0.645280000000    -0.302875   
O52      O      0.988290000000     0.461940000000     0.597510000000    -0.302965   
O53      O      0.547370000000     0.084620000000     0.004710000000    -0.372712   
O54      O      0.510520000000     0.171870000000     0.114480000000    -0.305188   
O55      O      0.427770000000     0.006380000000     0.038040000000    -0.303065   
O56      O      0.484900000000     0.183960000000     0.916520000000    -0.302101   
O57      O      0.501820000000     0.075370000000     0.142540000000    -0.300333   
O58      O      0.539580000000     0.229030000000     0.985640000000    -0.306186   
O59      O      0.413290000000     0.054950000000     0.953450000000    -0.302105   
O60      O      0.624820000000     0.050690000000     0.885760000000    -0.299059   
O61      O      0.562930000000     0.956430000000     0.073490000000    -0.301468   
O62      O      0.526860000000     0.052580000000     0.866800000000    -0.302889   
O63      O      0.638560000000     0.970340000000     0.010570000000    -0.299425   
O64      O      0.692710000000     0.108410000000     0.003440000000    -0.301724   
O65      O      0.647110000000     0.175970000000     0.060810000000    -0.304702   
O66      O      0.569090000000     0.091890000000     0.508540000000    -0.376103   
O67      O      0.446640000000     0.141230000000     0.570640000000    -0.301171   
O68      O      0.503680000000     0.085970000000     0.378340000000    -0.300818   
O69      O      0.644420000000     0.216960000000     0.489090000000    -0.301465   
O70      O      0.425760000000     0.072520000000     0.501880000000    -0.303369   
O71      O      0.556980000000     0.236070000000     0.532760000000    -0.303853   
O72      O      0.584790000000     0.145020000000     0.377490000000    -0.305259   
O73      O      0.694830000000     0.014430000000     0.515110000000    -0.297628   
O74      O      0.511490000000     0.964500000000     0.464770000000    -0.302955   
O75      O      0.694450000000     0.080840000000     0.441230000000    -0.306947   
O76      O      0.562390000000     0.952290000000     0.548210000000    -0.301848   
O77      O      0.622750000000     0.052880000000     0.637070000000    -0.301989   
O78      O      0.576530000000     0.142490000000     0.642010000000    -0.301806   
O79      O      0.543790000000     0.576580000000     0.056280000000    -0.372576   
O80      O      0.413030000000     0.620700000000     0.006680000000    -0.305938   
O81      O      0.498770000000     0.433610000000     0.056970000000    -0.302116   
O82      O      0.616580000000     0.574300000000     0.932860000000    -0.303384   
O83      O      0.403820000000     0.538450000000     0.062650000000    -0.306357   
O84      O      0.533840000000     0.630510000000     0.923850000000    -0.302952   
O85      O      0.567970000000     0.448510000000     0.988170000000    -0.301955   
O86      O      0.668500000000     0.590960000000     0.127950000000    -0.303134   
O87      O      0.487050000000     0.519660000000     0.176780000000    -0.302809   
O88      O      0.680660000000     0.523860000000     0.055490000000    -0.30054    
O89      O      0.541620000000     0.602040000000     0.196980000000    -0.302698   
O90      O      0.583840000000     0.711930000000     0.104910000000    -0.301332   
O91      O      0.517360000000     0.720730000000     0.032640000000    -0.30418    
O92      O      0.602070000000     0.588490000000     0.561410000000    -0.372738   
O93      O      0.567910000000     0.732340000000     0.575430000000    -0.304836   
O94      O      0.530530000000     0.588520000000     0.437160000000    -0.305119   
O95      O      0.738390000000     0.605020000000     0.508560000000    -0.298395   
O96      O      0.490200000000     0.681050000000     0.539740000000    -0.307628   
O97      O      0.705010000000     0.692960000000     0.544140000000    -0.303609   
O98      O      0.626200000000     0.563510000000     0.422560000000    -0.301764   
O99      O      0.646930000000     0.458340000000     0.614690000000    -0.302222   
O100     O      0.462770000000     0.540520000000     0.558160000000    -0.3037     
O101     O      0.674890000000     0.467650000000     0.521250000000    -0.301026   
O102     O      0.508720000000     0.504340000000     0.637570000000    -0.300432   
O103     O      0.623620000000     0.574200000000     0.702800000000    -0.301398   
O104     O      0.652600000000     0.665690000000     0.672010000000    -0.30441    
Zn1      Zn     0.997200000000     0.025570000000     0.116880000000     0.457243   
Zn2      Zn     0.114040000000     0.107730000000     0.098120000000     0.455204   
Zn3      Zn     0.093730000000     0.989630000000     0.018060000000     0.456118   
Zn4      Zn     0.011150000000     0.105990000000     0.000910000000     0.457626   
Zn5      Zn     0.041300000000     0.117510000000     0.502710000000     0.463686   
Zn6      Zn     0.152140000000     0.033140000000     0.528160000000     0.452606   
Zn7      Zn     0.088540000000     0.103850000000     0.632990000000     0.456265   
Zn8      Zn     0.021510000000     0.992550000000     0.569160000000     0.457837   
Zn9      Zn     0.105720000000     0.530640000000     0.043250000000     0.454653   
Zn10     Zn     0.034360000000     0.493920000000     0.160010000000     0.455957   
Zn11     Zn     0.098740000000     0.620840000000     0.153780000000     0.461197   
Zn12     Zn     0.984130000000     0.599250000000     0.074610000000     0.454443   
Zn13     Zn     0.022700000000     0.530630000000     0.549180000000     0.460817   
Zn14     Zn     0.161360000000     0.567560000000     0.529980000000     0.452782   
Zn15     Zn     0.075930000000     0.647380000000     0.612130000000     0.4549     
Zn16     Zn     0.114570000000     0.512660000000     0.650600000000     0.456505   
Zn17     Zn     0.560120000000     0.162710000000     0.041190000000     0.463413   
Zn18     Zn     0.511640000000     0.031740000000     0.063840000000     0.452818   
Zn19     Zn     0.493390000000     0.094140000000     0.938160000000     0.458557   
Zn20     Zn     0.624280000000     0.054570000000     0.975840000000     0.452696   
Zn21     Zn     0.536970000000     0.151780000000     0.561830000000     0.456311   
Zn22     Zn     0.505130000000     0.055330000000     0.462740000000     0.460782   
Zn23     Zn     0.622790000000     0.133360000000     0.456380000000     0.462233   
Zn24     Zn     0.612030000000     0.029380000000     0.551860000000     0.456388   
Zn25     Zn     0.502120000000     0.634770000000     0.006530000000     0.461875   
Zn26     Zn     0.487170000000     0.518010000000     0.088540000000     0.46321    
Zn27     Zn     0.602040000000     0.531560000000     0.009930000000     0.453802   
Zn28     Zn     0.583260000000     0.620420000000     0.119710000000     0.455451   
Zn29     Zn     0.630490000000     0.667790000000     0.586480000000     0.464187   
Zn30     Zn     0.523800000000     0.598020000000     0.524730000000     0.462157   
Zn31     Zn     0.659660000000     0.556730000000     0.504950000000     0.454974   
Zn32     Zn     0.595500000000     0.533250000000     0.628120000000     0.454429   


