data_structure

_audit_creation_method RASPA-1.0
_audit_creation_date 2023-5-19
_audit_author_name 'Poobodin Mano'

_cell_length_a    25.5505
_cell_length_b    25.4771
_cell_length_c    25.8234
_cell_angle_alpha 90
_cell_angle_beta  90
_cell_angle_gamma 90
_cell_volume      16809.8

_symmetry_cell_setting          triclinic
_symmetry_space_group_name_Hall 'P 1'
_symmetry_space_group_name_H-M  'P 1'
_symmetry_Int_Tables_number     1

_symmetry_equiv_pos_as_xyz 'x,y,z'

loop_
_atom_site_label
_atom_site_type_symbol
_atom_site_fract_x
_atom_site_fract_y
_atom_site_fract_z
_atom_site_charge
C1       C      0.039710000000     0.076530000000     0.212280000000     0.377358   
C2       C      0.177900000000     0.087260000000     0.055030000000     0.379515   
C3       C      0.065770000000     0.919520000000     0.085360000000     0.37861    
C4       C      0.019550000000     0.034440000000     0.929220000000     0.378094   
C5       C      0.020720000000     0.204340000000     0.052900000000     0.377757   
C6       C      0.892970000000     0.040210000000     0.078180000000     0.376001   
C7       C      0.050650000000     0.050920000000     0.434380000000     0.377453   
C8       C      0.192020000000     0.050070000000     0.582840000000     0.378272   
C9       C      0.024440000000     0.175130000000     0.597970000000     0.378477   
C10      C      0.049150000000     0.015280000000     0.719320000000     0.379816   
C11      C      0.060830000000     0.889080000000     0.555520000000     0.375016   
C12      C      0.903980000000     0.015620000000     0.573110000000     0.379761   
C13      C      0.017910000000     0.421350000000     0.046250000000     0.376019   
C14      C      0.105110000000     0.552220000000     0.181100000000     0.381598   
C15      C      0.191840000000     0.545370000000     0.015700000000     0.374429   
C16      C      0.046900000000     0.702830000000     0.062240000000     0.375926   
C17      C      0.915010000000     0.570520000000     0.086450000000     0.373711   
C18      C      0.038020000000     0.569310000000     0.908070000000     0.375422   
C19      C      0.032700000000     0.385390000000     0.562700000000     0.381576   
C20      C      0.073490000000     0.501280000000     0.401350000000     0.379696   
C21      C      0.922940000000     0.554240000000     0.516690000000     0.377727   
C22      C      0.089780000000     0.669860000000     0.533150000000     0.375273   
C23      C      0.204800000000     0.503580000000     0.543980000000     0.377684   
C24      C      0.048830000000     0.542290000000     0.683370000000     0.374556   
C25      C      0.373660000000     0.007460000000     0.004810000000     0.378736   
C26      C      0.513740000000     0.022470000000     0.153920000000     0.379407   
C27      C      0.534940000000     0.889530000000     0.001110000000     0.37965    
C28      C      0.659560000000     0.056470000000     0.017630000000     0.377569   
C29      C      0.490210000000     0.176600000000     0.021950000000     0.377751   
C30      C      0.522220000000     0.047510000000     0.868310000000     0.380119   
C31      C      0.390880000000     0.038000000000     0.489560000000     0.377552   
C32      C      0.548520000000     0.039130000000     0.368270000000     0.378242   
C33      C      0.518840000000     0.200250000000     0.502310000000     0.377382   
C34      C      0.677020000000     0.068850000000     0.513110000000     0.3799     
C35      C      0.545300000000     0.915190000000     0.537950000000     0.380515   
C36      C      0.522420000000     0.077210000000     0.651160000000     0.379133   
C37      C      0.429780000000     0.584020000000     0.004930000000     0.375479   
C38      C      0.545300000000     0.409390000000     0.990410000000     0.379105   
C39      C      0.579120000000     0.576740000000     0.874840000000     0.378765   
C40      C      0.710140000000     0.515380000000     0.023580000000     0.378015   
C41      C      0.545170000000     0.531930000000     0.156780000000     0.37549    
C42      C      0.612420000000     0.687010000000     0.041460000000     0.377458   
C43      C      0.402880000000     0.599160000000     0.526950000000     0.376917   
C44      C      0.530840000000     0.553210000000     0.676490000000     0.378041   
C45      C      0.509710000000     0.425270000000     0.519580000000     0.377147   
C46      C      0.684430000000     0.530780000000     0.540620000000     0.378676   
C47      C      0.579410000000     0.705450000000     0.553900000000     0.380343   
C48      C      0.557480000000     0.580080000000     0.390800000000     0.375909   
C49      C      0.602560000000     0.548300000000     0.785600000000    -0.00796614 
C50      C      0.558300000000     0.516000000000     0.761420000000    -0.00796946 
C51      C      0.564530000000     0.552820000000     0.248680000000    -0.0119655  
C52      C      0.533550000000     0.558470000000     0.299530000000    -0.0122701  
C53      C      0.577630000000     0.845610000000     0.595830000000    -0.00829573 
C54      C      0.570190000000     0.786810000000     0.604980000000    -0.0120765  
C55      C      0.484100000000     0.281370000000     0.542130000000    -0.0108196  
C56      C      0.507070000000     0.335450000000     0.555300000000    -0.0110309  
C57      C      0.614030000000     0.780990000000     0.016750000000    -0.0076345  
C58      C      0.563350000000     0.803960000000     0.038510000000    -0.00689924 
C59      C      0.504020000000     0.323200000000     0.010280000000    -0.0120774  
C60      C      0.511520000000     0.266040000000     0.993080000000    -0.0118693  
C61      C      0.556020000000     0.094610000000     0.791880000000    -0.00981105 
C62      C      0.567590000000     0.082110000000     0.735080000000    -0.0114394  
C63      C      0.540270000000     0.982320000000     0.291610000000    -0.0111097  
C64      C      0.550600000000     0.983740000000     0.233240000000    -0.00996206 
C65      C      0.830240000000     0.537350000000     0.537430000000    -0.0113657  
C66      C      0.776190000000     0.545410000000     0.513040000000    -0.0126408  
C67      C      0.310980000000     0.572140000000     0.511090000000    -0.00957836 
C68      C      0.295980000000     0.535860000000     0.556130000000    -0.00847475 
C69      C      0.796520000000     0.512830000000     0.068010000000    -0.00587877 
C70      C      0.820270000000     0.567960000000     0.064490000000    -0.0120399  
C71      C      0.282360000000     0.579760000000     0.004980000000    -0.0123592  
C72      C      0.337480000000     0.555850000000     0.007490000000    -0.0118136  
C73      C      0.082440000000     0.572260000000     0.768700000000    -0.0113543  
C74      C      0.079740000000     0.550340000000     0.824110000000    -0.0117474  
C75      C      0.114540000000     0.505570000000     0.264960000000    -0.00874532 
C76      C      0.080130000000     0.527200000000     0.308600000000    -0.00944194 
C77      C      0.093710000000     0.814910000000     0.502630000000    -0.010968   
C78      C      0.079590000000     0.757190000000     0.491890000000    -0.011372   
C79      C      0.969560000000     0.254480000000     0.586200000000    -0.0116575  
C80      C      0.975370000000     0.313840000000     0.594390000000    -0.00827646 
C81      C      0.819490000000     0.041200000000     0.534580000000    -0.0124164  
C82      C      0.761540000000     0.039780000000     0.549350000000    -0.0115565  
C83      C      0.282800000000     0.027230000000     0.556120000000    -0.00656926 
C84      C      0.297800000000     0.058980000000     0.508170000000    -0.00834926 
C85      C      0.068630000000     0.776220000000     0.120270000000    -0.0113972  
C86      C      0.054410000000     0.834030000000     0.129510000000    -0.00940659 
C87      C      0.005480000000     0.339050000000     0.996540000000    -0.0125419  
C88      C      0.986870000000     0.282550000000     0.006280000000    -0.00914656 
C89      C      0.802870000000     0.061980000000     0.050440000000    -0.0125429  
C90      C      0.748570000000     0.036080000000     0.050670000000    -0.0114272  
C91      C      0.283040000000     0.020400000000     0.036720000000    -0.00773876 
C92      C      0.263970000000     0.071990000000     0.013190000000    -0.00569067 
C93      C      0.033220000000     0.971810000000     0.857610000000    -0.0121762  
C94      C      0.023460000000     0.968230000000     0.799140000000    -0.00886517 
C95      C      0.005240000000     0.078060000000     0.354200000000    -0.011194   
C96      C      0.001800000000     0.057720000000     0.298280000000    -0.0111699  
H1       H      0.564330000000     0.620320000000     0.808590000000     0.106701   
H2       H      0.500280000000     0.575780000000     0.747380000000     0.107117   
H3       H      0.623790000000     0.569950000000     0.754690000000     0.0460386  
H4       H      0.631370000000     0.521520000000     0.804110000000     0.0514711  
H5       H      0.533810000000     0.498570000000     0.792560000000     0.0467445  
H6       H      0.575190000000     0.482890000000     0.738910000000     0.0508706  
H7       H      0.499150000000     0.507620000000     0.218340000000     0.105247   
H8       H      0.596770000000     0.608160000000     0.326730000000     0.105152   
H9       H      0.599640000000     0.527990000000     0.255540000000     0.0487802  
H10      H      0.577680000000     0.592460000000     0.236090000000     0.0509652  
H11      H      0.521660000000     0.518760000000     0.313070000000     0.0515698  
H12      H      0.497810000000     0.582320000000     0.292580000000     0.0479249  
H13      H      0.528570000000     0.836390000000     0.527050000000     0.111723   
H14      H      0.625680000000     0.771170000000     0.542950000000     0.107168   
H15      H      0.619920000000     0.854430000000     0.590490000000     0.0468249  
H16      H      0.563750000000     0.866880000000     0.630860000000     0.0465509  
H17      H      0.527560000000     0.778580000000     0.608490000000     0.0544923  
H18      H      0.589350000000     0.775840000000     0.642070000000     0.0425802  
H19      H      0.540230000000     0.275140000000     0.478910000000     0.109361   
H20      H      0.470710000000     0.363800000000     0.484240000000     0.106337   
H21      H      0.443600000000     0.285220000000     0.526880000000     0.0462273  
H22      H      0.482040000000     0.258620000000     0.578870000000     0.0491972  
H23      H      0.550160000000     0.332300000000     0.560680000000     0.0521869  
H24      H      0.489680000000     0.348830000000     0.592520000000     0.0449884  
H25      H      0.658530000000     0.743400000000     0.077600000000     0.105135   
H26      H      0.517510000000     0.816780000000     0.969740000000     0.11029    
H27      H      0.644860000000     0.811780000000     0.016920000000     0.0438178  
H28      H      0.608500000000     0.768450000000     0.975820000000     0.0539257  
H29      H      0.571840000000     0.826500000000     0.074420000000     0.0517444  
H30      H      0.536200000000     0.771700000000     0.049400000000     0.050853   
H31      H      0.563500000000     0.340720000000     0.952510000000     0.104606   
H32      H      0.450630000000     0.242920000000     0.047850000000     0.105199   
H33      H      0.512600000000     0.326500000000     0.052380000000     0.0512013  
H34      H      0.462880000000     0.335430000000     0.003120000000     0.0479437  
H35      H      0.553910000000     0.256300000000     0.996040000000     0.0530317  
H36      H      0.499350000000     0.262050000000     0.951920000000     0.0467354  
H37      H      0.503180000000     0.027390000000     0.792890000000     0.109793   
H38      H      0.487360000000     0.105920000000     0.717690000000     0.10592    
H39      H      0.534840000000     0.132590000000     0.795110000000     0.0452435  
H40      H      0.594210000000     0.098690000000     0.812220000000     0.0485545  
H41      H      0.583140000000     0.041430000000     0.731950000000     0.0523835  
H42      H      0.598310000000     0.109640000000     0.721150000000     0.0443868  
H43      H      0.572950000000     0.061500000000     0.295000000000     0.108732   
H44      H      0.484600000000     0.037990000000     0.227270000000     0.109691   
H45      H      0.563930000000     0.950020000000     0.308690000000     0.046123   
H46      H      0.498220000000     0.973590000000     0.298760000000     0.0514846  
H47      H      0.546750000000     0.943080000000     0.217990000000     0.0460529  
H48      H      0.591320000000     0.997270000000     0.225840000000     0.0487311  
H49      H      0.861270000000     0.587380000000     0.475960000000     0.105254   
H50      H      0.746420000000     0.484270000000     0.563990000000     0.104634   
H51      H      0.838150000000     0.494480000000     0.540210000000     0.0501267  
H52      H      0.830370000000     0.554290000000     0.577130000000     0.0506061  
H53      H      0.776340000000     0.530060000000     0.472740000000     0.0472881  
H54      H      0.767750000000     0.588250000000     0.511970000000     0.0532903  
H55      H      0.337830000000     0.640460000000     0.551740000000     0.106859   
H56      H      0.271130000000     0.465860000000     0.516760000000     0.107148   
H57      H      0.275780000000     0.594220000000     0.498210000000     0.0463158  
H58      H      0.325250000000     0.548720000000     0.477590000000     0.0536738  
H59      H      0.280940000000     0.559330000000     0.589260000000     0.0534996  
H60      H      0.331440000000     0.514670000000     0.569750000000     0.046238   
H61      H      0.778170000000     0.485640000000     0.991200000000     0.107033   
H62      H      0.855120000000     0.566640000000     0.140240000000     0.105818   
H63      H      0.775390000000     0.508020000000     0.105380000000     0.0497499  
H64      H      0.828500000000     0.483220000000     0.067320000000     0.0435698  
H65      H      0.790070000000     0.597510000000     0.074920000000     0.0514871  
H66      H      0.833120000000     0.576110000000     0.024140000000     0.0573475  
H67      H      0.253010000000     0.502260000000     0.985780000000     0.104734   
H68      H      0.367970000000     0.632170000000     0.984030000000     0.104761   
H69      H      0.278540000000     0.604350000000     0.969630000000     0.0450321  
H70      H      0.276320000000     0.604980000000     0.039630000000     0.0538498  
H71      H      0.341580000000     0.525410000000     0.976870000000     0.0466157  
H72      H      0.342720000000     0.536770000000     0.045890000000     0.0540009  
H73      H      0.006980000000     0.537190000000     0.751910000000     0.107456   
H74      H      0.014280000000     0.603740000000     0.838960000000     0.105831   
H75      H      0.122240000000     0.563750000000     0.753350000000     0.0503614  
H76      H      0.077180000000     0.615560000000     0.768820000000     0.0460596  
H77      H      0.118840000000     0.556170000000     0.842240000000     0.0476764  
H78      H      0.071880000000     0.507400000000     0.823100000000     0.051587   
H79      H      0.159990000000     0.570920000000     0.237260000000     0.105596   
H80      H      0.083770000000     0.449060000000     0.341370000000     0.105947   
H81      H      0.094440000000     0.472160000000     0.245600000000     0.0515265  
H82      H      0.151420000000     0.489830000000     0.281790000000     0.0420799  
H83      H      0.039930000000     0.534640000000     0.293940000000     0.0534189  
H84      H      0.097140000000     0.564760000000     0.322790000000     0.052681   
H85      H      0.040080000000     0.811510000000     0.568230000000     0.108893   
H86      H      0.121360000000     0.738250000000     0.562970000000     0.106984   
H87      H      0.085900000000     0.837760000000     0.466730000000     0.0473427  
H88      H      0.136110000000     0.818380000000     0.511730000000     0.0475233  
H89      H      0.097910000000     0.745300000000     0.454630000000     0.0451003  
H90      H      0.036420000000     0.753280000000     0.487860000000     0.050787   
H91      H      0.034330000000     0.243620000000     0.639640000000     0.108042   
H92      H      0.049600000000     0.306790000000     0.553500000000     0.112387   
H93      H      0.967240000000     0.246370000000     0.543920000000     0.0526817  
H94      H      0.932560000000     0.241090000000     0.604570000000     0.0426602  
H95      H      0.977350000000     0.322710000000     0.636510000000     0.0463308  
H96      H      0.940260000000     0.333620000000     0.578050000000     0.0462315  
H97      H      0.833560000000     0.980120000000     0.592210000000     0.104588   
H98      H      0.748640000000     0.095250000000     0.486070000000     0.104747   
H99      H      0.832680000000     0.082840000000     0.534890000000     0.0520478  
H100     H      0.824430000000     0.025220000000     0.494810000000     0.0471172  
H101     H      0.756580000000     0.056190000000     0.588950000000     0.0491565  
H102     H      0.748050000000     0.998250000000     0.549310000000     0.0498981  
H103     H      0.259090000000     0.083610000000     0.613640000000     0.108632   
H104     H      0.327560000000     0.002390000000     0.453600000000     0.107225   
H105     H      0.318300000000     0.020250000000     0.580050000000     0.0481141  
H106     H      0.267270000000     0.988170000000     0.544500000000     0.0525452  
H107     H      0.310720000000     0.099090000000     0.519470000000     0.0545566  
H108     H      0.262960000000     0.063300000000     0.482750000000     0.0482902  
H109     H      0.006180000000     0.773020000000     0.062870000000     0.108292   
H110     H      0.107870000000     0.852970000000     0.066720000000     0.108476   
H111     H      0.058790000000     0.753870000000     0.155970000000     0.044134   
H112     H      0.111490000000     0.772410000000     0.113670000000     0.0512479  
H113     H      0.069490000000     0.845920000000     0.168150000000     0.0431659  
H114     H      0.011120000000     0.838700000000     0.129770000000     0.0501679  
H115     H      0.972820000000     0.359170000000     0.071790000000     0.105962   
H116     H      0.041090000000     0.280490000000     0.071190000000     0.111323   
H117     H      0.982640000000     0.355850000000     0.963870000000     0.0440798  
H118     H      0.047520000000     0.338360000000     0.985330000000     0.0534722  
H119     H      0.989980000000     0.260430000000     0.969270000000     0.048385   
H120     H      0.945170000000     0.282640000000     0.018570000000     0.0450077  
H121     H      0.826770000000     0.004090000000     0.107800000000     0.104315   
H122     H      0.725700000000     0.098350000000     0.997610000000     0.104811   
H123     H      0.799820000000     0.102230000000     0.066810000000     0.0477285  
H124     H      0.816690000000     0.064880000000     0.009670000000     0.0516303  
H125     H      0.734200000000     0.033440000000     0.091250000000     0.0488485  
H126     H      0.751580000000     0.995820000000     0.034320000000     0.04858    
H127     H      0.308150000000     0.971320000000     0.973370000000     0.108053   
H128     H      0.246110000000     0.126880000000     0.074200000000     0.109194   
H129     H      0.249370000000     0.993160000000     0.041350000000     0.0498973  
H130     H      0.299790000000     0.027340000000     0.075900000000     0.0551113  
H131     H      0.243530000000     0.064470000000     0.975880000000     0.0519599  
H132     H      0.298110000000     0.097700000000     0.004830000000     0.0481611  
H133     H      0.977660000000     0.036500000000     0.860700000000     0.107727   
H134     H      0.073440000000     0.037130000000     0.792510000000     0.111513   
H135     H      0.076160000000     0.971620000000     0.864860000000     0.0531603  
H136     H      0.016050000000     0.936570000000     0.876480000000     0.0438342  
H137     H      0.980740000000     0.970620000000     0.791200000000     0.048424   
H138     H      0.037890000000     0.929570000000     0.785160000000     0.0462155  
H139     H      0.080730000000     0.038760000000     0.360750000000     0.107806   
H140     H      0.063460000000     0.113740000000     0.279520000000     0.107456   
H141     H      0.968020000000     0.067340000000     0.373950000000     0.0486761  
H142     H      0.008630000000     0.121560000000     0.354780000000     0.0471465  
H143     H      0.961440000000     0.065040000000     0.283820000000     0.0462315  
H144     H      0.008870000000     0.014640000000     0.297350000000     0.0506254  
N1       N      0.581370000000     0.586010000000     0.823090000000    -0.205197   
N2       N      0.525570000000     0.549630000000     0.728700000000    -0.205238   
N3       N      0.532550000000     0.528890000000     0.207850000000    -0.20511    
N4       N      0.565750000000     0.584370000000     0.339000000000    -0.205094   
N5       N      0.548020000000     0.863610000000     0.550520000000    -0.205742   
N6       N      0.593480000000     0.755920000000     0.562970000000    -0.205486   
N7       N      0.516890000000     0.253470000000     0.504430000000    -0.204947   
N8       N      0.495080000000     0.374270000000     0.515140000000    -0.205386   
N9       N      0.631200000000     0.736420000000     0.048250000000    -0.207353   
N10      N      0.537430000000     0.836380000000     0.999380000000    -0.206972   
N11      N      0.539720000000     0.357300000000     0.981200000000    -0.206284   
N12      N      0.481350000000     0.229110000000     0.024790000000    -0.205926   
N13      N      0.525170000000     0.052790000000     0.816140000000    -0.206014   
N14      N      0.520920000000     0.088070000000     0.702530000000    -0.20602    
N15      N      0.554800000000     0.031900000000     0.316620000000    -0.205068   
N16      N      0.513320000000     0.017910000000     0.206240000000    -0.20557    
N17      N      0.871460000000     0.562390000000     0.506510000000    -0.205828   
N18      N      0.735870000000     0.517730000000     0.542920000000    -0.205968   
N19      N      0.350760000000     0.609470000000     0.528440000000    -0.206195   
N20      N      0.257330000000     0.497260000000     0.539010000000    -0.206731   
N21      N      0.761680000000     0.502600000000     0.024280000000    -0.207474   
N22      N      0.863950000000     0.571760000000     0.101000000000    -0.20498    
N23      N      0.242840000000     0.538060000000     0.002940000000    -0.205249   
N24      N      0.378190000000     0.595610000000     0.999490000000    -0.205279   
N25      N      0.042820000000     0.547900000000     0.735390000000    -0.204376   
N26      N      0.039970000000     0.576820000000     0.855960000000    -0.204619   
N27      N      0.128390000000     0.546590000000     0.227920000000    -0.207749   
N28      N      0.078240000000     0.488700000000     0.350610000000    -0.206626   
N29      N      0.062630000000     0.836750000000     0.545340000000    -0.204348   
N30      N      0.098580000000     0.722460000000     0.533090000000    -0.204729   
N31      N      0.013620000000     0.225980000000     0.609300000000    -0.205402   
N32      N      0.022550000000     0.333540000000     0.568690000000    -0.206067   
N33      N      0.851220000000     0.010080000000     0.570700000000    -0.206423   
N34      N      0.730070000000     0.070470000000     0.512670000000    -0.20669    
N35      N      0.244620000000     0.056050000000     0.587250000000    -0.206982   
N36      N      0.339070000000     0.031640000000     0.479650000000    -0.206626   
N37      N      0.039450000000     0.753570000000     0.076630000000    -0.203597   
N38      N      0.077960000000     0.867940000000     0.090140000000    -0.205196   
N39      N      0.998100000000     0.372050000000     0.042530000000    -0.20476    
N40      N      0.018860000000     0.257110000000     0.046140000000    -0.205246   
N41      N      0.840570000000     0.031700000000     0.081080000000    -0.205457   
N42      N      0.711620000000     0.066890000000     0.019640000000    -0.206226   
N43      N      0.321800000000     0.996160000000     0.002650000000    -0.207309   
N44      N      0.229360000000     0.099020000000     0.049480000000    -0.207592   
N45      N      0.009190000000     0.019010000000     0.879960000000    -0.204756   
N46      N      0.050950000000     0.010150000000     0.771540000000    -0.205336   
N47      N      0.049570000000     0.054580000000     0.381930000000    -0.205172   
N48      N      0.039070000000     0.084600000000     0.264230000000    -0.205314   
O1       O      0.035910000000     0.060700000000     0.069300000000    -0.367826   
O2       O      0.011880000000     0.040120000000     0.192460000000    -0.303315   
O3       O      0.151620000000     0.111700000000     0.089180000000    -0.305375   
O4       O      0.090400000000     0.946640000000     0.052000000000    -0.307741   
O5       O      0.067390000000     0.106660000000     0.184100000000    -0.304164   
O6       O      0.030030000000     0.939820000000     0.113540000000    -0.302621   
O7       O      0.156740000000     0.052500000000     0.026270000000    -0.305968   
O8       O      0.989870000000     0.068240000000     0.950650000000    -0.303187   
O9       O      0.051850000000     0.186070000000     0.086850000000    -0.304749   
O10      O      0.057130000000     0.013260000000     0.953930000000    -0.305112   
O11      O      0.992700000000     0.174080000000     0.024900000000    -0.301894   
O12      O      0.910830000000     0.075040000000     0.047320000000    -0.302179   
O13      O      0.923400000000     0.012640000000     0.106260000000    -0.303407   
O14      O      0.047830000000     0.032500000000     0.576880000000    -0.36663    
O15      O      0.015090000000     0.073220000000     0.461110000000    -0.305329   
O16      O      0.173020000000     0.017990000000     0.549830000000    -0.303696   
O17      O      0.059490000000     0.151620000000     0.624120000000    -0.305225   
O18      O      0.086210000000     0.023370000000     0.455760000000    -0.304223   
O19      O      0.998700000000     0.151360000000     0.562780000000    -0.304406   
O20      O      0.162560000000     0.076510000000     0.612770000000    -0.304811   
O21      O      0.022140000000     0.983390000000     0.692170000000    -0.302494   
O22      O      0.089450000000     0.920670000000     0.529650000000    -0.301717   
O23      O      0.074800000000     0.052430000000     0.698490000000    -0.305442   
O24      O      0.029320000000     0.905730000000     0.590100000000    -0.301689   
O25      O      0.930460000000     0.985630000000     0.602690000000    -0.302512   
O26      O      0.926090000000     0.050610000000     0.545640000000    -0.307856   
O27      O      0.052910000000     0.560660000000     0.048950000000    -0.375535   
O28      O      0.047450000000     0.439320000000     0.010550000000    -0.30331    
O29      O      0.064390000000     0.525620000000     0.169900000000    -0.30507    
O30      O      0.176720000000     0.588970000000     0.035150000000    -0.30157    
O31      O      0.005300000000     0.449340000000     0.085200000000    -0.305991   
O32      O      0.159690000000     0.507970000000     0.007430000000    -0.304756   
O33      O      0.125420000000     0.583740000000     0.148680000000    -0.307802   
O34      O      0.011300000000     0.679550000000     0.036220000000    -0.301119   
O35      O      0.949090000000     0.556840000000     0.119850000000    -0.303781   
O36      O      0.087490000000     0.678460000000     0.077990000000    -0.304324   
O37      O      0.928140000000     0.582030000000     0.040020000000    -0.300101   
O38      O      0.007830000000     0.597790000000     0.935750000000    -0.300287   
O39      O      0.067820000000     0.535060000000     0.928600000000    -0.306243   
O40      O      0.062100000000     0.527180000000     0.541560000000    -0.368678   
O41      O      0.001680000000     0.419690000000     0.581380000000    -0.304327   
O42      O      0.084400000000     0.466160000000     0.434500000000    -0.308137   
O43      O      0.957280000000     0.575310000000     0.487460000000    -0.301441   
O44      O      0.072920000000     0.398730000000     0.537040000000    -0.307292   
O45      O      0.935910000000     0.525150000000     0.554730000000    -0.304437   
O46      O      0.059330000000     0.547300000000     0.415110000000    -0.301059   
O47      O      0.109550000000     0.642360000000     0.569370000000    -0.304358   
O48      O      0.174890000000     0.472180000000     0.519760000000    -0.306633   
O49      O      0.062260000000     0.648840000000     0.497450000000    -0.300592   
O50      O      0.186220000000     0.540900000000     0.571440000000    -0.30315    
O51      O      0.090900000000     0.557790000000     0.661340000000    -0.301013   
O52      O      0.011760000000     0.521540000000     0.657450000000    -0.303467   
O53      O      0.516010000000     0.033470000000     0.011290000000    -0.367243   
O54      O      0.404020000000     0.986260000000     0.971880000000    -0.304442   
O55      O      0.478500000000     0.049850000000     0.131790000000    -0.30243    
O56      O      0.560430000000     0.914860000000     0.035410000000    -0.305127   
O57      O      0.391080000000     0.038520000000     0.039530000000    -0.304058   
O58      O      0.505320000000     0.912980000000     0.968990000000    -0.30455    
O59      O      0.548920000000     0.998850000000     0.127900000000    -0.306132   
O60      O      0.630480000000     0.086440000000     0.990690000000    -0.306586   
O61      O      0.462240000000     0.145370000000     0.048760000000    -0.302783   
O62      O      0.640550000000     0.017710000000     0.042650000000    -0.303062   
O63      O      0.526380000000     0.159450000000     0.992500000000    -0.306225   
O64      O      0.546530000000     0.079710000000     0.897350000000    -0.307384   
O65      O      0.495340000000     0.010130000000     0.887280000000    -0.30468    
O66      O      0.532980000000     0.056650000000     0.509510000000    -0.370326   
O67      O      0.406110000000     0.073210000000     0.521330000000    -0.303961   
O68      O      0.526400000000     0.003530000000     0.395150000000    -0.304635   
O69      O      0.553100000000     0.178350000000     0.473670000000    -0.301688   
O70      O      0.423420000000     0.008130000000     0.466670000000    -0.304799   
O71      O      0.487870000000     0.173240000000     0.530420000000    -0.304382   
O72      O      0.565460000000     0.081240000000     0.389000000000    -0.302193   
O73      O      0.653730000000     0.040200000000     0.546220000000    -0.307988   
O74      O      0.518450000000     0.929140000000     0.498750000000    -0.304721   
O75      O      0.651490000000     0.095720000000     0.480030000000    -0.303199   
O76      O      0.569380000000     0.948710000000     0.565670000000    -0.308406   
O77      O      0.563000000000     0.055730000000     0.631960000000    -0.307893   
O78      O      0.483770000000     0.090160000000     0.622770000000    -0.305577   
O79      O      0.569950000000     0.550540000000     0.016340000000    -0.367436   
O80      O      0.463780000000     0.617670000000     0.990600000000    -0.303193   
O81      O      0.516240000000     0.432470000000     0.023480000000    -0.302487   
O82      O      0.600150000000     0.535620000000     0.893500000000    -0.306309   
O83      O      0.443280000000     0.539570000000     0.023400000000    -0.303282   
O84      O      0.556000000000     0.609740000000     0.903970000000    -0.304467   
O85      O      0.580420000000     0.434210000000     0.965550000000    -0.307814   
O86      O      0.689240000000     0.538110000000     0.062510000000    -0.303337   
O87      O      0.513980000000     0.512020000000     0.123690000000    -0.303164   
O88      O      0.683610000000     0.504200000000     0.983370000000    -0.30568    
O89      O      0.586980000000     0.555390000000     0.142650000000    -0.301626   
O90      O      0.630760000000     0.650010000000     0.069170000000    -0.30508    
O91      O      0.577660000000     0.678310000000     0.007080000000    -0.305228   
O92      O      0.543900000000     0.565640000000     0.533530000000    -0.366827   
O93      O      0.420890000000     0.563900000000     0.496610000000    -0.301937   
O94      O      0.506780000000     0.589680000000     0.652760000000    -0.306143   
O95      O      0.540370000000     0.439270000000     0.556060000000    -0.302783   
O96      O      0.432630000000     0.624010000000     0.557850000000    -0.306207   
O97      O      0.491280000000     0.458480000000     0.487580000000    -0.304651   
O98      O      0.559530000000     0.520570000000     0.652140000000    -0.304634   
O99      O      0.670020000000     0.569880000000     0.513400000000    -0.304624   
O100     O      0.541570000000     0.685380000000     0.579080000000    -0.307032   
O101     O      0.651450000000     0.503560000000     0.566080000000    -0.304521   
O102     O      0.604890000000     0.678820000000     0.520700000000    -0.305403   
O103     O      0.590560000000     0.601110000000     0.421270000000    -0.304707   
O104     O      0.518190000000     0.554540000000     0.408220000000    -0.299415   
Zn1      Zn     0.001350000000     0.014090000000     0.118970000000     0.45096    
Zn2      Zn     0.075370000000     0.113920000000     0.106990000000     0.458902   
Zn3      Zn     0.084290000000     0.020410000000     0.026490000000     0.455924   
Zn4      Zn     0.984070000000     0.094700000000     0.024400000000     0.450595   
Zn5      Zn     0.999280000000     0.076200000000     0.537420000000     0.455498   
Zn6      Zn     0.098350000000     0.999740000000     0.529630000000     0.449688   
Zn7      Zn     0.085230000000     0.077250000000     0.625790000000     0.459305   
Zn8      Zn     0.008670000000     0.978300000000     0.614900000000     0.450744   
Zn9      Zn     0.081260000000     0.510590000000     0.001020000000     0.458486   
Zn10     Zn     0.019510000000     0.524450000000     0.105530000000     0.457397   
Zn11     Zn     0.109610000000     0.602950000000     0.075200000000     0.458867   
Zn12     Zn     0.000680000000     0.603480000000     0.014480000000     0.450398   
Zn13     Zn     0.004400000000     0.499350000000     0.582790000000     0.454454   
Zn14     Zn     0.097370000000     0.467760000000     0.510330000000     0.463296   
Zn15     Zn     0.036780000000     0.573910000000     0.486400000000     0.448363   
Zn16     Zn     0.111430000000     0.565050000000     0.585520000000     0.450357   
Zn17     Zn     0.481680000000     0.987570000000     0.960820000000     0.45766    
Zn18     Zn     0.463330000000     0.066100000000     0.056580000000     0.451717   
Zn19     Zn     0.565730000000     0.992230000000     0.052410000000     0.45169    
Zn20     Zn     0.553760000000     0.088080000000     0.974230000000     0.457127   
Zn21     Zn     0.478230000000     0.096200000000     0.544870000000     0.453024   
Zn22     Zn     0.501740000000     0.000480000000     0.468820000000     0.457055   
Zn23     Zn     0.574020000000     0.102380000000     0.464030000000     0.453909   
Zn24     Zn     0.578470000000     0.026520000000     0.561730000000     0.459914   
Zn25     Zn     0.542290000000     0.612660000000     0.981160000000     0.452689   
Zn26     Zn     0.512640000000     0.509020000000     0.045550000000     0.451633   
Zn27     Zn     0.607280000000     0.507950000000     0.965900000000     0.458836   
Zn28     Zn     0.617840000000     0.571900000000     0.071860000000     0.450003   
Zn29     Zn     0.494840000000     0.537170000000     0.482120000000     0.448535   
Zn30     Zn     0.507340000000     0.614730000000     0.578910000000     0.457678   
Zn31     Zn     0.573140000000     0.508820000000     0.575810000000     0.451596   
Zn32     Zn     0.600320000000     0.603160000000     0.498280000000     0.456307   


